<?xml version="1.0" encoding="UTF-8"?>

<!-- generated on 2024-06-29 12:56:17 by Eclipse SUMO sumo Version 1.20.0
-->

<configuration xmlns:xsi="http://www.w3.org/2001/XMLSchema-instance" xsi:noNamespaceSchemaLocation="http://sumo.dlr.de/xsd/sumoConfiguration.xsd">

    <input>
        <net-file value="intersection_5_6.net.xml"/>
    </input>

</configuration>
