<?xml version="1.0" encoding="UTF-8"?>

<!-- generated on 2024-06-29 12:56:21 by Eclipse SUMO netedit Version 1.20.0
<configuration xmlns:xsi="http://www.w3.org/2001/XMLSchema-instance" xsi:noNamespaceSchemaLocation="http://sumo.dlr.de/xsd/neteditConfiguration.xsd">

    <input>
        <sumocfg-file value="/Users/eviat/Desktop/Final_Project/SUMO_FILE/intersection_5_6/intersection_5_6.sumocfg"/>
        <sumo-net-file value="/Users/eviat/Desktop/Final_Project/SUMO_FILE/intersection_5_6/intersection_5_6.net.xml"/>
    </input>

    <output>
        <output-file value="/Users/eviat/Desktop/Final_Project/SUMO_FILE/intersection_5_6/intersection_5_6.net.xml"/>
        <output.street-names value="true"/>
    </output>

    <processing>
        <geometry.min-radius.fix.railways value="false"/>
        <geometry.max-grade.fix value="false"/>
        <offset.disable-normalization value="true"/>
        <lefthand value="0"/>
    </processing>

    <junctions>
        <no-turnarounds value="true"/>
        <junctions.corner-detail value="5"/>
        <junctions.limit-turn-speed value="5.50"/>
        <rectangular-lane-cut value="0"/>
    </junctions>

    <pedestrian>
        <walkingareas value="0"/>
    </pedestrian>

</configuration>
-->

<net version="1.20" junctionCornerDetail="5" limitTurnSpeed="5.50" xmlns:xsi="http://www.w3.org/2001/XMLSchema-instance" xsi:noNamespaceSchemaLocation="http://sumo.dlr.de/xsd/net_file.xsd">

    <location netOffset="-3874585.55,-3783856.71" convBoundary="0.00,3.54,1071.76,1090.10" origBoundary="34.805994,32.156389,34.815652,32.164679" projParameter="+proj=merc +a=6378137 +b=6378137 +lat_ts=0.0 +lon_0=0.0 +x_0=0.0 +y_0=0 +k=1.0 +units=m +nadgrids=@null +wktext +no_defs"/>

    <type id="highway.footway" priority="1" numLanes="1" speed="2.78" allow="pedestrian" oneway="1" width="2.00"/>
    <type id="highway.motorway" priority="14" numLanes="2" speed="39.44" allow="private emergency authority army vip passenger hov taxi bus coach delivery truck trailer motorcycle evehicle custom1 custom2" oneway="1"/>
    <type id="highway.motorway_link" priority="9" numLanes="1" speed="22.22" allow="private emergency authority army vip passenger hov taxi bus coach delivery truck trailer motorcycle evehicle custom1 custom2" oneway="1"/>
    <type id="highway.path" priority="1" numLanes="1" speed="5.56" allow="pedestrian bicycle" oneway="0" width="2.00"/>
    <type id="highway.pedestrian" priority="1" numLanes="1" speed="2.78" allow="pedestrian" oneway="1" width="2.00"/>
    <type id="highway.primary" priority="12" numLanes="2" speed="27.78" disallow="tram rail_urban rail rail_electric rail_fast ship container cable_car subway aircraft wheelchair scooter drone" oneway="0"/>
    <type id="highway.primary_link" priority="7" numLanes="1" speed="22.22" disallow="tram rail_urban rail rail_electric rail_fast ship container cable_car subway aircraft wheelchair scooter drone" oneway="0"/>
    <type id="highway.secondary" priority="11" numLanes="1" speed="27.78" disallow="tram rail_urban rail rail_electric rail_fast ship container cable_car subway aircraft wheelchair scooter drone" oneway="0"/>
    <type id="highway.tertiary" priority="10" numLanes="1" speed="22.22" disallow="tram rail_urban rail rail_electric rail_fast ship container cable_car subway aircraft wheelchair scooter drone" oneway="0"/>
    <type id="highway.track" priority="1" numLanes="1" speed="5.56" allow="pedestrian motorcycle moped bicycle" oneway="0"/>

    <edge id=":10008349418_0" function="internal">
        <lane id=":10008349418_0_0" index="0" disallow="tram rail_urban rail rail_electric rail_fast ship container cable_car subway aircraft wheelchair scooter drone" speed="22.22" length="8.59" shape="740.11,936.01 738.20,934.14 736.06,933.70 733.92,933.25 732.02,931.38"/>
        <lane id=":10008349418_0_1" index="1" disallow="tram rail_urban rail rail_electric rail_fast ship container cable_car subway aircraft wheelchair scooter drone" speed="22.22" length="8.59" shape="740.11,936.01 738.72,934.04 737.46,932.91 736.20,931.78 734.81,929.82"/>
        <lane id=":10008349418_0_2" index="2" disallow="tram rail_urban rail rail_electric rail_fast ship container cable_car subway aircraft wheelchair scooter drone" speed="22.22" length="8.59" shape="740.11,936.01 739.16,933.80 738.85,932.13 738.55,930.46 737.60,928.25"/>
        <lane id=":10008349418_0_3" index="3" disallow="tram rail_urban rail rail_electric rail_fast ship container cable_car subway aircraft wheelchair scooter drone" speed="22.22" length="8.59" shape="742.90,934.45 741.95,932.23 741.65,930.56 741.34,928.90 740.39,926.68"/>
    </edge>
    <edge id=":10008349419_0" function="internal">
        <lane id=":10008349419_0_0" index="0" disallow="tram rail_urban rail rail_electric rail_fast ship container cable_car subway aircraft wheelchair scooter drone" speed="22.22" length="8.20" shape="632.30,735.51 631.01,733.50 629.80,732.34 628.58,731.19 627.25,729.20"/>
        <lane id=":10008349419_0_1" index="1" disallow="tram rail_urban rail rail_electric rail_fast ship container cable_car subway aircraft wheelchair scooter drone" speed="22.22" length="8.20" shape="635.16,734.06 633.86,732.05 632.64,730.88 631.42,729.71 630.08,727.71"/>
        <lane id=":10008349419_0_2" index="2" disallow="tram rail_urban rail rail_electric rail_fast ship container cable_car subway aircraft wheelchair scooter drone" speed="22.22" length="8.20" shape="638.02,732.62 636.71,730.59 635.49,729.41 634.26,728.24 632.91,726.22"/>
        <lane id=":10008349419_0_3" index="3" disallow="tram rail_urban rail rail_electric rail_fast ship container cable_car subway aircraft wheelchair scooter drone" speed="22.22" length="8.20" shape="638.02,732.62 637.15,730.35 636.90,728.66 636.65,726.98 635.75,724.73"/>
    </edge>
    <edge id=":10793723513_0" function="internal">
        <lane id=":10793723513_0_0" index="0" disallow="tram rail_urban rail rail_electric rail_fast ship container cable_car subway aircraft wheelchair scooter drone" speed="6.86" length="6.48" shape="9.14,878.11 9.46,877.10 9.32,875.74 8.73,874.06 7.69,872.05"/>
    </edge>
    <edge id=":10793723513_1" function="internal">
        <lane id=":10793723513_1_0" index="0" disallow="tram rail_urban rail rail_electric rail_fast ship container cable_car subway aircraft wheelchair scooter drone" speed="16.97" length="7.13" shape="9.14,878.11 10.16,876.25 10.78,874.87 11.58,873.68 13.17,872.36"/>
    </edge>
    <edge id=":10793723514_0" function="internal">
        <lane id=":10793723514_0_0" index="0" disallow="tram rail_urban rail rail_electric rail_fast ship container cable_car subway aircraft wheelchair scooter drone" speed="25.00" length="13.38" shape="-1.48,886.39 1.79,883.75 4.55,882.17 6.92,880.67 9.04,878.28"/>
    </edge>
    <edge id=":10793723514_1" function="internal">
        <lane id=":10793723514_1_0" index="0" disallow="tram rail_urban rail rail_electric rail_fast ship container cable_car subway aircraft wheelchair scooter drone" speed="11.58" length="15.81" shape="8.38,893.50 7.15,889.22 6.85,885.25 7.48,881.61 9.04,878.28"/>
    </edge>
    <edge id=":10793723518_0" function="internal">
        <lane id=":10793723518_0_0" index="0" disallow="tram rail_urban rail rail_electric rail_fast ship container cable_car subway aircraft wheelchair scooter drone" speed="18.79" length="12.68" shape="20.04,903.58 17.04,902.51 14.44,902.17 11.52,902.25 7.58,902.48"/>
        <lane id=":10793723518_0_1" index="1" disallow="tram rail_urban rail rail_electric rail_fast ship container cable_car subway aircraft wheelchair scooter drone" speed="19.17" length="13.21" shape="20.04,903.58 17.11,902.01 14.64,900.55 11.81,899.53 7.81,899.27"/>
    </edge>
    <edge id=":10793723518_2" function="internal">
        <lane id=":10793723518_2_0" index="0" disallow="tram rail_urban rail rail_electric rail_fast ship container cable_car subway aircraft wheelchair scooter drone" speed="12.90" length="15.59" shape="20.04,903.58 15.79,901.40 12.44,899.02 9.99,896.45 8.45,893.69"/>
    </edge>
    <edge id=":10793723519_0" function="internal">
        <lane id=":10793723519_0_0" index="0" disallow="tram rail_urban rail rail_electric rail_fast ship container cable_car subway aircraft wheelchair scooter drone" speed="13.33" length="11.47" shape="27.15,912.39 25.53,909.28 24.35,906.98 22.84,905.20 20.22,903.66"/>
    </edge>
    <edge id=":10793723519_1" function="internal">
        <lane id=":10793723519_1_0" index="0" disallow="tram rail_urban rail rail_electric rail_fast ship container cable_car subway aircraft wheelchair scooter drone" speed="11.40" length="11.84" shape="31.59,902.54 28.48,903.75 25.87,904.53 23.27,904.59 20.22,903.66"/>
    </edge>
    <edge id=":10793723525_0" function="internal">
        <lane id=":10793723525_0_0" index="0" disallow="tram rail_urban rail rail_electric rail_fast ship container cable_car subway aircraft wheelchair scooter drone" speed="18.76" length="18.78" shape="54.00,883.01 48.85,886.44 44.90,889.34 42.03,892.14 40.06,895.26"/>
    </edge>
    <edge id=":10793723525_1" function="internal">
        <lane id=":10793723525_1_0" index="0" disallow="tram rail_urban rail rail_electric rail_fast ship container cable_car subway aircraft wheelchair scooter drone" speed="13.87" length="17.65" shape="40.64,877.92 41.56,881.97 41.77,886.65 41.27,891.29 40.06,895.26"/>
    </edge>
    <edge id=":10793723529_0" function="internal">
        <lane id=":10793723529_0_0" index="0" disallow="tram rail_urban rail rail_electric rail_fast ship container cable_car subway aircraft wheelchair scooter drone" speed="26.55" length="17.09" shape="27.04,868.41 30.60,869.07 34.25,869.50 38.53,869.42 43.98,868.56"/>
        <lane id=":10793723529_0_1" index="1" disallow="tram rail_urban rail rail_electric rail_fast ship container cable_car subway aircraft wheelchair scooter drone" speed="26.89" length="17.54" shape="27.04,868.41 30.57,869.59 34.17,871.15 38.42,872.21 43.92,871.85"/>
    </edge>
    <edge id=":10793723529_2" function="internal">
        <lane id=":10793723529_2_0" index="0" disallow="tram rail_urban rail rail_electric rail_fast ship container cable_car subway aircraft wheelchair scooter drone" speed="11.23" length="17.19" shape="27.04,868.41 31.96,869.75 35.86,871.75 38.73,874.41 40.57,877.73"/>
    </edge>
    <edge id=":10793723531_0" function="internal">
        <lane id=":10793723531_0_0" index="0" disallow="tram rail_urban rail rail_electric rail_fast ship container cable_car subway aircraft wheelchair scooter drone" speed="18.05" length="7.61" shape="19.95,865.29 21.93,866.40 23.27,867.22 24.68,867.84 26.85,868.38"/>
    </edge>
    <edge id=":10793723531_1" function="internal">
        <lane id=":10793723531_1_0" index="0" disallow="tram rail_urban rail rail_electric rail_fast ship container cable_car subway aircraft wheelchair scooter drone" speed="13.44" length="8.32" shape="18.74,869.27 21.06,868.45 22.73,868.04 24.43,868.01 26.85,868.38"/>
    </edge>
    <edge id=":11396398734_0" function="internal">
        <lane id=":11396398734_0_0" index="0" allow="pedestrian bicycle" speed="2.89" length="2.92" width="2.00" shape="100.41,1086.10 100.41,1087.00 100.13,1087.48 99.58,1087.55 98.75,1087.20"/>
    </edge>
    <edge id=":11435303727_0" function="internal">
        <lane id=":11435303727_0_0" index="0" allow="pedestrian motorcycle moped bicycle" speed="3.65" length="4.67" shape="1045.27,3.92 1045.76,2.57 1046.44,1.99 1047.31,2.18 1048.37,3.16"/>
    </edge>
    <edge id=":11912008976_0" function="internal">
        <lane id=":11912008976_0_0" index="0" allow="pedestrian bicycle" speed="2.89" length="2.92" width="2.00" shape="778.95,1081.28 778.05,1081.40 777.54,1081.19 777.39,1080.65 777.62,1079.78"/>
    </edge>
    <edge id=":11912008977_0" function="internal">
        <lane id=":11912008977_0_0" index="0" allow="pedestrian bicycle" speed="2.89" length="2.93" width="2.00" shape="784.50,1053.46 785.08,1052.76 785.60,1052.56 786.08,1052.86 786.50,1053.66"/>
    </edge>
    <edge id=":11912008982_0" function="internal">
        <lane id=":11912008982_0_0" index="0" allow="pedestrian bicycle" speed="5.56" length="9.47" width="2.00" shape="786.35,1075.30 783.88,1076.55 782.40,1077.77 781.07,1079.22 779.05,1081.19"/>
    </edge>
    <edge id=":11912008982_1" function="internal">
        <lane id=":11912008982_1_0" index="0" allow="pedestrian bicycle" speed="5.53" length="9.75" width="2.00" shape="786.35,1075.30 783.24,1076.24 781.23,1075.95 780.33,1074.46 780.52,1071.74"/>
    </edge>
    <edge id=":11912008982_2" function="internal">
        <lane id=":11912008982_2_0" index="0" allow="pedestrian bicycle" speed="2.93" length="3.07" width="2.00" shape="786.35,1075.30 785.41,1075.42 784.87,1075.19 784.72,1074.62 784.97,1073.71"/>
    </edge>
    <edge id=":11912008982_3" function="internal">
        <lane id=":11912008982_3_0" index="0" allow="pedestrian bicycle" speed="3.84" length="4.19" width="2.00" shape="782.47,1072.17 782.39,1073.34 782.78,1073.99 783.64,1074.11 784.97,1073.71"/>
    </edge>
    <edge id=":11912008982_4" function="internal">
        <lane id=":11912008982_4_0" index="0" allow="pedestrian bicycle" speed="5.56" length="9.97" width="2.00" shape="782.47,1072.17 782.00,1075.12 781.72,1077.25 780.96,1079.10 779.05,1081.19"/>
    </edge>
    <edge id=":11912008982_5" function="internal">
        <lane id=":11912008982_5_0" index="0" allow="pedestrian bicycle" speed="2.89" length="2.92" width="2.00" shape="782.47,1072.17 781.82,1072.80 781.28,1072.93 780.84,1072.58 780.52,1071.74"/>
    </edge>
    <edge id=":11912008982_6" function="internal">
        <lane id=":11912008982_6_0" index="0" allow="pedestrian bicycle" speed="5.56" length="8.72" width="2.00" shape="777.73,1079.69 779.37,1077.85 779.97,1076.21 780.14,1074.32 780.52,1071.74"/>
    </edge>
    <edge id=":11912008982_7" function="internal">
        <lane id=":11912008982_7_0" index="0" allow="pedestrian bicycle" speed="5.56" length="9.49" width="2.00" shape="777.73,1079.69 779.74,1077.70 781.05,1076.22 782.51,1074.98 784.97,1073.71"/>
    </edge>
    <edge id=":11912008982_8" function="internal">
        <lane id=":11912008982_8_0" index="0" allow="pedestrian bicycle" speed="2.89" length="2.92" width="2.00" shape="777.73,1079.69 778.62,1079.57 779.14,1079.78 779.28,1080.32 779.05,1081.19"/>
    </edge>
    <edge id=":11912008983_0" function="internal">
        <lane id=":11912008983_0_0" index="0" allow="pedestrian bicycle" speed="2.89" length="2.93" width="2.00" shape="796.93,1071.09 797.66,1071.62 797.89,1072.13 797.61,1072.62 796.84,1073.09"/>
    </edge>
    <edge id=":1264117732_0" function="internal">
        <lane id=":1264117732_0_0" index="0" allow="private emergency authority army vip passenger hov taxi bus coach delivery truck trailer motorcycle evehicle custom1 custom2" speed="22.22" length="3.49" shape="580.98,415.76 583.00,418.67"/>
        <lane id=":1264117732_0_1" index="1" allow="private emergency authority army vip passenger hov taxi bus coach delivery truck trailer motorcycle evehicle custom1 custom2" speed="22.22" length="3.49" shape="578.39,417.64 580.35,420.46"/>
    </edge>
    <edge id=":1264117732_2" function="internal">
        <lane id=":1264117732_2_0" index="0" allow="private emergency authority army vip passenger hov taxi bus coach delivery truck trailer motorcycle evehicle custom1 custom2" speed="22.22" length="3.23" shape="575.79,419.51 577.76,422.21"/>
        <lane id=":1264117732_2_1" index="1" allow="private emergency authority army vip passenger hov taxi bus coach delivery truck trailer motorcycle evehicle custom1 custom2" speed="22.22" length="3.23" shape="573.20,421.39 575.10,424.00"/>
        <lane id=":1264117732_2_2" index="2" allow="private emergency authority army vip passenger hov taxi bus coach delivery truck trailer motorcycle evehicle custom1 custom2" speed="22.22" length="3.23" shape="570.61,423.26 572.45,425.79"/>
    </edge>
    <edge id=":1264117763_0" function="internal">
        <lane id=":1264117763_0_0" index="0" allow="private emergency authority army vip passenger hov taxi bus coach delivery truck trailer motorcycle evehicle custom1 custom2" speed="22.22" length="0.24" shape="668.48,551.03 668.46,551.09 668.45,551.14 668.44,551.19 668.44,551.26"/>
    </edge>
    <edge id=":1264117778_0" function="internal">
        <lane id=":1264117778_0_0" index="0" allow="private emergency authority army vip passenger hov taxi bus coach delivery truck trailer motorcycle evehicle custom1 custom2" speed="22.22" length="16.50" shape="668.72,573.83 669.46,577.28 670.41,580.65 671.79,584.53 673.81,589.48"/>
    </edge>
    <edge id=":1264117778_1" function="internal">
        <lane id=":1264117778_1_0" index="0" allow="private emergency authority army vip passenger hov taxi bus coach delivery truck trailer motorcycle evehicle custom1 custom2" speed="22.22" length="16.50" shape="665.39,575.17 666.69,578.44 667.72,581.80 668.95,585.73 670.86,590.73"/>
    </edge>
    <edge id=":1264117791_0" function="internal">
        <lane id=":1264117791_0_0" index="0" disallow="tram rail_urban rail rail_electric rail_fast ship container cable_car subway aircraft wheelchair scooter drone" speed="22.22" length="7.87" shape="693.27,855.85 689.50,848.79"/>
        <lane id=":1264117791_0_1" index="1" disallow="tram rail_urban rail rail_electric rail_fast ship container cable_car subway aircraft wheelchair scooter drone" speed="22.22" length="7.87" shape="696.06,854.28 692.35,847.34"/>
        <lane id=":1264117791_0_2" index="2" disallow="tram rail_urban rail rail_electric rail_fast ship container cable_car subway aircraft wheelchair scooter drone" speed="22.22" length="7.87" shape="698.85,852.72 695.21,845.90"/>
    </edge>
    <edge id=":1682322714_0" function="internal">
        <lane id=":1682322714_0_0" index="0" disallow="tram rail_urban rail rail_electric rail_fast ship container cable_car subway aircraft wheelchair scooter drone" speed="27.78" length="5.21" shape="468.57,638.13 464.22,641.22"/>
        <lane id=":1682322714_0_1" index="1" disallow="tram rail_urban rail rail_electric rail_fast ship container cable_car subway aircraft wheelchair scooter drone" speed="27.78" length="5.21" shape="466.67,635.56 462.39,638.59"/>
        <lane id=":1682322714_0_2" index="2" disallow="tram rail_urban rail rail_electric rail_fast ship container cable_car subway aircraft wheelchair scooter drone" speed="27.78" length="5.21" shape="464.77,632.98 460.55,635.97"/>
        <lane id=":1682322714_0_3" index="3" disallow="tram rail_urban rail rail_electric rail_fast ship container cable_car subway aircraft wheelchair scooter drone" speed="27.78" length="5.21" shape="462.87,630.41 458.72,633.35"/>
    </edge>
    <edge id=":172824408-AddedOffRampNode_0" function="internal">
        <lane id=":172824408-AddedOffRampNode_0_0" index="0" allow="private emergency authority army vip passenger hov taxi bus coach delivery truck trailer motorcycle evehicle custom1 custom2" speed="22.22" length="8.73" shape="515.78,336.50 518.12,338.12 520.67,337.90 523.23,337.67 525.62,339.25"/>
        <lane id=":172824408-AddedOffRampNode_0_1" index="1" allow="private emergency authority army vip passenger hov taxi bus coach delivery truck trailer motorcycle evehicle custom1 custom2" speed="22.22" length="8.73" shape="515.78,336.50 517.59,338.22 519.38,338.83 521.18,339.43 523.03,341.13"/>
        <lane id=":172824408-AddedOffRampNode_0_2" index="2" allow="private emergency authority army vip passenger hov taxi bus coach delivery truck trailer motorcycle evehicle custom1 custom2" speed="22.22" length="8.73" shape="515.78,336.50 520.44,343.00"/>
        <lane id=":172824408-AddedOffRampNode_0_3" index="3" allow="private emergency authority army vip passenger hov taxi bus coach delivery truck trailer motorcycle evehicle custom1 custom2" speed="22.22" length="8.73" shape="513.18,338.37 517.84,344.88"/>
        <lane id=":172824408-AddedOffRampNode_0_4" index="4" allow="private emergency authority army vip passenger hov taxi bus coach delivery truck trailer motorcycle evehicle custom1 custom2" speed="22.22" length="8.73" shape="510.59,340.24 515.25,346.75"/>
    </edge>
    <edge id=":1750276180_0" function="internal">
        <lane id=":1750276180_0_0" index="0" disallow="tram rail_urban rail rail_electric rail_fast ship container cable_car subway aircraft wheelchair scooter drone" speed="22.22" length="8.14" shape="40.42,931.62 38.93,929.74 37.61,928.67 36.33,927.59 34.91,925.66"/>
        <lane id=":1750276180_0_1" index="1" disallow="tram rail_urban rail rail_electric rail_fast ship container cable_car subway aircraft wheelchair scooter drone" speed="22.22" length="8.14" shape="40.42,931.62 39.36,929.50 39.00,927.87 38.65,926.22 37.67,924.05"/>
    </edge>
    <edge id=":1750276187_0" function="internal">
        <lane id=":1750276187_0_0" index="0" allow="pedestrian bicycle" speed="2.89" length="2.92" width="2.00" shape="-0.22,915.10 -0.84,914.45 -0.97,913.91 -0.62,913.47 0.22,913.16"/>
    </edge>
    <edge id=":1750276213_0" function="internal">
        <lane id=":1750276213_0_0" index="0" allow="pedestrian bicycle" speed="5.56" length="8.13" width="2.00" shape="11.93,920.63 10.49,918.74 9.23,917.64 7.67,916.97 5.36,916.39"/>
    </edge>
    <edge id=":1750276213_1" function="internal">
        <lane id=":1750276213_1_0" index="0" allow="pedestrian bicycle" speed="5.56" length="9.45" width="2.00" shape="11.93,920.63 10.35,918.32 9.43,916.63 8.80,914.81 8.09,912.10"/>
    </edge>
    <edge id=":1750276213_2" function="internal">
        <lane id=":1750276213_2_0" index="0" allow="pedestrian bicycle" speed="2.89" length="2.92" width="2.00" shape="11.93,920.63 11.91,919.72 12.17,919.23 12.72,919.15 13.56,919.47"/>
    </edge>
    <edge id=":1750276213_3" function="internal">
        <lane id=":1750276213_3_0" index="0" allow="pedestrian bicycle" speed="5.56" length="8.71" width="2.00" shape="10.03,911.61 10.68,914.11 11.26,915.79 12.11,917.35 13.56,919.47"/>
    </edge>
    <edge id=":1750276213_4" function="internal">
        <lane id=":1750276213_4_0" index="0" allow="pedestrian bicycle" speed="5.50" length="8.90" width="2.00" shape="10.03,911.61 10.33,914.24 9.65,915.91 7.99,916.63 5.36,916.39"/>
    </edge>
    <edge id=":1750276213_5" function="internal">
        <lane id=":1750276213_5_0" index="0" allow="pedestrian bicycle" speed="2.89" length="2.92" width="2.00" shape="10.03,911.61 9.73,912.46 9.31,912.82 8.76,912.70 8.09,912.10"/>
    </edge>
    <edge id=":1750276213_6" function="internal">
        <lane id=":1750276213_6_0" index="0" allow="pedestrian bicycle" speed="4.02" length="4.36" width="2.00" shape="5.80,914.44 7.09,914.55 7.90,914.20 8.24,913.39 8.09,912.10"/>
    </edge>
    <edge id=":1750276213_7" function="internal">
        <lane id=":1750276213_7_0" index="0" allow="pedestrian bicycle" speed="5.56" length="9.62" width="2.00" shape="5.80,914.44 8.54,915.13 10.37,915.93 11.86,917.24 13.56,919.47"/>
    </edge>
    <edge id=":1750276213_8" function="internal">
        <lane id=":1750276213_8_0" index="0" allow="pedestrian bicycle" speed="2.89" length="2.92" width="2.00" shape="5.80,914.44 6.42,915.09 6.55,915.64 6.20,916.07 5.36,916.39"/>
    </edge>
    <edge id=":1750276307_0" function="internal">
        <lane id=":1750276307_0_0" index="0" allow="pedestrian bicycle" speed="5.56" length="6.53" width="2.00" shape="31.40,958.20 28.58,952.31"/>
    </edge>
    <edge id=":1750276307_1" function="internal">
        <lane id=":1750276307_1_0" index="0" allow="pedestrian bicycle" speed="2.89" length="0.79" width="2.00" shape="31.40,958.20 31.52,957.42"/>
    </edge>
    <edge id=":1750276307_4" function="internal">
        <lane id=":1750276307_4_0" index="0" allow="pedestrian bicycle" speed="2.89" length="2.13" width="2.00" shape="31.52,957.42 31.54,957.31 31.89,956.88 32.45,956.90 33.22,957.37"/>
    </edge>
    <edge id=":1750276307_2" function="internal">
        <lane id=":1750276307_2_0" index="0" allow="pedestrian bicycle" speed="5.56" length="6.56" width="2.00" shape="30.39,951.45 33.22,957.37"/>
    </edge>
    <edge id=":1750276307_3" function="internal">
        <lane id=":1750276307_3_0" index="0" allow="pedestrian bicycle" speed="2.89" length="2.39" width="2.00" shape="30.39,951.45 30.26,952.34 29.92,952.78 29.36,952.77 29.04,952.58"/>
    </edge>
    <edge id=":1750276307_5" function="internal">
        <lane id=":1750276307_5_0" index="0" allow="pedestrian bicycle" speed="2.89" length="0.53" width="2.00" shape="29.04,952.58 28.58,952.31"/>
    </edge>
    <edge id=":1768959723_0" function="internal">
        <lane id=":1768959723_0_0" index="0" allow="pedestrian bicycle" speed="6.95" length="0.81" width="2.00" shape="20.23,865.87 19.78,865.20"/>
    </edge>
    <edge id=":1768959723_1" function="internal">
        <lane id=":1768959723_1_0" index="0" allow="pedestrian bicycle" speed="5.56" length="3.59" width="2.00" shape="20.23,865.87 19.20,865.65 18.45,865.61 17.74,865.79 16.80,866.26"/>
    </edge>
    <edge id=":1768959723_2" function="internal">
        <lane id=":1768959723_2_0" index="0" allow="pedestrian bicycle" speed="2.89" length="2.92" width="2.00" shape="20.23,865.87 19.62,865.21 19.50,864.66 19.86,864.24 20.71,863.93"/>
    </edge>
    <edge id=":1768959723_3" function="internal">
        <lane id=":1768959723_3_0" index="0" allow="pedestrian bicycle" speed="5.56" length="5.12" width="2.00" shape="15.82,864.52 17.15,863.84 18.17,863.57 19.23,863.62 20.71,863.93"/>
    </edge>
    <edge id=":1768959723_4" function="internal">
        <lane id=":1768959723_4_0" index="0" allow="pedestrian bicycle" speed="5.87" length="4.15" width="2.00" shape="15.82,864.52 16.53,864.30 17.43,864.34 18.51,864.64 19.78,865.20"/>
    </edge>
    <edge id=":1768959723_5" function="internal">
        <lane id=":1768959723_5_0" index="0" allow="pedestrian bicycle" speed="2.89" length="2.92" width="2.00" shape="15.82,864.52 16.72,864.59 17.18,864.90 17.21,865.46 16.80,866.26"/>
    </edge>
    <edge id=":1905958403_0" function="internal">
        <lane id=":1905958403_0_0" index="0" allow="private emergency authority army vip passenger hov taxi bus coach delivery truck trailer motorcycle evehicle custom1 custom2" speed="22.22" length="8.18" shape="745.85,814.83 746.87,817.00 747.93,818.32 749.01,819.62 750.10,821.77"/>
    </edge>
    <edge id=":2252734168_0" function="internal">
        <lane id=":2252734168_0_0" index="0" disallow="tram rail_urban rail rail_electric rail_fast ship container cable_car subway aircraft wheelchair scooter drone" speed="22.22" length="8.18" shape="482.81,429.24 481.58,427.20 480.40,426.01 479.20,424.83 477.91,422.82"/>
        <lane id=":2252734168_0_1" index="1" disallow="tram rail_urban rail rail_electric rail_fast ship container cable_car subway aircraft wheelchair scooter drone" speed="22.22" length="8.18" shape="485.71,427.89 484.47,425.82 483.28,424.61 482.07,423.41 480.76,421.37"/>
    </edge>
    <edge id=":290553646_0" function="internal">
        <lane id=":290553646_0_0" index="0" disallow="tram rail_urban rail rail_electric rail_fast ship container cable_car subway aircraft wheelchair scooter drone" speed="27.78" length="8.21" shape="162.60,827.28 160.60,828.61 159.43,829.84 158.27,831.07 156.26,832.40"/>
        <lane id=":290553646_0_1" index="1" disallow="tram rail_urban rail rail_electric rail_fast ship container cable_car subway aircraft wheelchair scooter drone" speed="27.78" length="8.21" shape="161.12,824.44 159.11,825.77 157.95,827.00 156.78,828.23 154.77,829.57"/>
    </edge>
    <edge id=":290553651_0" function="internal">
        <lane id=":290553651_0_0" index="0" disallow="tram rail_urban rail rail_electric rail_fast ship container cable_car subway aircraft wheelchair scooter drone" speed="27.78" length="8.17" shape="460.16,644.05 458.31,645.65 457.27,647.03 456.22,648.39 454.31,649.92"/>
        <lane id=":290553651_0_1" index="1" disallow="tram rail_urban rail rail_electric rail_fast ship container cable_car subway aircraft wheelchair scooter drone" speed="27.78" length="8.17" shape="460.16,644.05 458.04,645.23 456.40,645.69 454.74,646.12 452.57,647.24"/>
        <lane id=":290553651_0_2" index="2" disallow="tram rail_urban rail rail_electric rail_fast ship container cable_car subway aircraft wheelchair scooter drone" speed="27.78" length="8.17" shape="458.33,641.43 456.23,642.59 454.61,643.03 452.97,643.46 450.83,644.55"/>
        <lane id=":290553651_0_3" index="3" disallow="tram rail_urban rail rail_electric rail_fast ship container cable_car subway aircraft wheelchair scooter drone" speed="27.78" length="8.17" shape="456.50,638.80 454.43,639.94 452.82,640.38 451.20,640.79 449.09,641.87"/>
        <lane id=":290553651_0_4" index="4" disallow="tram rail_urban rail rail_electric rail_fast ship container cable_car subway aircraft wheelchair scooter drone" speed="27.78" length="8.17" shape="454.67,636.18 452.62,637.30 451.03,637.72 449.43,638.12 447.35,639.18"/>
    </edge>
    <edge id=":3273365394_0" function="internal">
        <lane id=":3273365394_0_0" index="0" disallow="tram rail_urban rail rail_electric rail_fast ship container cable_car subway aircraft wheelchair scooter drone" speed="27.78" length="1.74" shape="802.94,532.79 802.68,531.15"/>
        <lane id=":3273365394_0_1" index="1" disallow="tram rail_urban rail rail_electric rail_fast ship container cable_car subway aircraft wheelchair scooter drone" speed="27.78" length="1.74" shape="803.30,529.61 802.94,527.96"/>
        <lane id=":3273365394_0_2" index="2" disallow="tram rail_urban rail rail_electric rail_fast ship container cable_car subway aircraft wheelchair scooter drone" speed="27.78" length="1.74" shape="803.66,526.43 803.21,524.77"/>