<routes xmlns:xsi="http://www.w3.org/2001/XMLSchema-instance" xsi:noNamespaceSchemaLocation="http://sumo.dlr.de/xsd/routes_file.xsd">
    
    <route id="E_N" edges="215834159 32299296 1047696857 178456429#1 889092618#2-AddedOnRampEdge 889092618#2" />
    <route id="E_W" edges="215834159 32299296 1047696857 739661099 740524787#2 198505048#0" />
    <route id="N_E" edges="178456430#0 178456430#0-AddedOffRampEdge 178456430#1 889092620#0 215834149 1092819225" />
    <route id="N_W" edges="178456430#0 178456430#0-AddedOffRampEdge 97803900#0 740524787#2 198505048#0" />
    <route id="W_E" edges="740504608 740504607 215834156#0 889092620#0 215834149 1092819225" />
    <route id="W_N" edges="740504608 740504607 215834156#0 889092618#1 889092618#2-AddedOnRampEdge 889092618#2" />
    <route id="W_S" edges="740504608 740504607 215834156#0 889092620#0 30824395#0 30824395#2" />
<flow id="f_0" begin="0.00" route="E_N" end="3600.00" vehsPerHour="1905" /><!--
--><flow id="f_1" begin="0.00" route="E_W" end="3600.00" vehsPerHour="1957" /><!--
--><flow id="f_2" begin="0.00" route="N_E" end="3600.00" vehsPerHour="1839" /><!--
--><flow id="f_3" begin="0.00" route="N_W" end="3600.00" vehsPerHour="2186" /><!--
--><flow id="f_4" begin="0.00" route="W_E" end="3600.00" vehsPerHour="2024" /><!--
--><flow id="f_5" begin="0.00" route="W_N" end="3600.00" vehsPerHour="1836" /><!--
--><flow id="f_6" begin="0.00" route="W_S" end="3600.00" vehsPerHour="2019" /><!--
--></routes>