<?xml version="1.0" encoding="UTF-8"?>

<!-- generated on 2024-06-29 15:08:37 by Eclipse SUMO netedit Version 1.20.0
-->

<routes xmlns:xsi="http://www.w3.org/2001/XMLSchema-instance" xsi:noNamespaceSchemaLocation="http://sumo.dlr.de/xsd/routes_file.xsd">
    <!-- Routes -->
    <route id="E_N" edges="215834159 32299296 1047696857 178456429#1 889092618#2-AddedOnRampEdge 889092618#2"/>
    <route id="E_W" edges="215834159 32299296 1047696857 739661099 740524787#2 198505048#0"/>
    <route id="N_E" edges="178456430#0 178456430#0-AddedOffRampEdge 178456430#1 889092620#0 215834149 1092819225"/>
    <route id="N_W" edges="178456430#0 178456430#0-AddedOffRampEdge 97803900#0 740524787#2 198505048#0"/>
    <route id="W_E" edges="740504608 740504607 215834156#0 889092620#0 215834149 1092819225"/>
    <route id="W_N" edges="740504608 740504607 215834156#0 889092618#1 889092618#2-AddedOnRampEdge 889092618#2"/>
</routes>
