<?xml version="1.0" encoding="UTF-8"?>

<!-- generated on 2024-06-30 10:45:30 by Eclipse SUMO sumo Version 1.20.0
-->

<configuration xmlns:xsi="http://www.w3.org/2001/XMLSchema-instance" xsi:noNamespaceSchemaLocation="http://sumo.dlr.de/xsd/sumoConfiguration.xsd">

    <input>
        <net-file value="intersection_3.net.xml"/>
        <route-files value="routes_3/intersection_3_very_hard_27.rou.xml"/>
    </input>

</configuration>
