<?xml version="1.0" encoding="UTF-8"?>

<!-- generated on 2024-07-29 10:15:52 by Eclipse SUMO netedit Version 1.20.0
<configuration xmlns:xsi="http://www.w3.org/2001/XMLSchema-instance" xsi:noNamespaceSchemaLocation="http://sumo.dlr.de/xsd/neteditConfiguration.xsd">

    <input>
        <sumo-net-file value="/Users/eviat/Desktop/Final_Project/Traffic_Tune_Project/Nets/intersection_3/intersection_3.net.xml"/>
    </input>

    <output>
        <output-file value="/Users/eviat/Desktop/Final_Project/Traffic_Tune_Project/Nets/intersection_3/intersection_3.net.xml"/>
        <output.street-names value="true"/>
    </output>

    <processing>
        <geometry.min-radius.fix.railways value="false"/>
        <geometry.max-grade.fix value="false"/>
        <offset.disable-normalization value="true"/>
        <lefthand value="0"/>
    </processing>

    <junctions>
        <no-turnarounds value="true"/>
        <junctions.corner-detail value="5"/>
        <junctions.limit-turn-speed value="5.50"/>
        <rectangular-lane-cut value="0"/>
    </junctions>

    <pedestrian>
        <walkingareas value="0"/>
    </pedestrian>

</configuration>
-->

<net version="1.20" junctionCornerDetail="5" limitTurnSpeed="5.50" xmlns:xsi="http://www.w3.org/2001/XMLSchema-instance" xsi:noNamespaceSchemaLocation="http://sumo.dlr.de/xsd/net_file.xsd">

    <location netOffset="-3875572.62,-3784133.35" convBoundary="0.21,56.71,731.01,801.40" origBoundary="34.814861,32.158493,34.822230,32.164758" projParameter="+proj=merc +a=6378137 +b=6378137 +lat_ts=0.0 +lon_0=0.0 +x_0=0.0 +y_0=0 +k=1.0 +units=m +nadgrids=@null +wktext +no_defs"/>

    <type id="highway.motorway_link" priority="9" numLanes="1" speed="22.22" allow="private emergency authority army vip passenger hov taxi bus coach delivery truck trailer motorcycle evehicle custom1 custom2" oneway="1"/>
    <type id="highway.primary" priority="12" numLanes="2" speed="27.78" disallow="tram rail_urban rail rail_electric rail_fast ship container cable_car subway aircraft wheelchair scooter drone" oneway="0"/>

    <edge id=":1261680371_0" function="internal">
        <lane id=":1261680371_0_0" index="0" disallow="moped bicycle tram rail_urban rail rail_electric rail_fast ship container cable_car subway aircraft wheelchair scooter drone" speed="25.00" length="3.09" shape="588.54,421.26 591.27,422.69"/>
    </edge>
    <edge id=":1261680371_1" function="internal">
        <lane id=":1261680371_1_0" index="0" disallow="tram rail_urban rail rail_electric rail_fast ship container cable_car subway aircraft wheelchair scooter drone" speed="27.78" length="3.47" shape="587.82,422.79 588.57,423.42 588.84,424.15 589.09,424.89 589.83,425.54"/>
        <lane id=":1261680371_1_1" index="1" disallow="tram rail_urban rail rail_electric rail_fast ship container cable_car subway aircraft wheelchair scooter drone" speed="27.78" length="3.47" shape="586.48,425.70 587.20,426.31 587.44,427.03 587.67,427.76 588.38,428.40"/>
    </edge>
    <edge id=":1888071004_0" function="internal">
        <lane id=":1888071004_0_0" index="0" disallow="tram rail_urban rail rail_electric rail_fast ship container cable_car subway aircraft wheelchair scooter drone" speed="27.78" length="8.50" shape="295.07,298.88 297.60,298.98 299.38,298.29 301.16,297.64 303.66,297.83"/>
        <lane id=":1888071004_0_1" index="1" disallow="tram rail_urban rail rail_electric rail_fast ship container cable_car subway aircraft wheelchair scooter drone" speed="27.78" length="8.50" shape="294.32,301.99 296.82,302.08 298.57,301.38 300.31,300.72 302.78,300.91"/>
        <lane id=":1888071004_0_2" index="2" disallow="tram rail_urban rail rail_electric rail_fast ship container cable_car subway aircraft wheelchair scooter drone" speed="27.78" length="8.50" shape="294.32,301.99 301.90,303.99"/>
        <lane id=":1888071004_0_3" index="3" disallow="tram rail_urban rail rail_electric rail_fast ship container cable_car subway aircraft wheelchair scooter drone" speed="27.78" length="8.50" shape="294.32,301.99 296.52,303.04 297.69,304.46 298.85,305.92 301.02,307.06"/>
    </edge>
    <edge id=":1888071023_0" function="internal">
        <lane id=":1888071023_0_0" index="0" allow="private emergency authority army vip passenger hov taxi bus coach delivery truck trailer motorcycle evehicle custom1 custom2" speed="22.22" length="7.46" shape="272.65,442.13 273.72,443.93 274.80,444.94 275.96,445.91 277.24,447.61"/>
        <lane id=":1888071023_0_1" index="1" allow="private emergency authority army vip passenger hov taxi bus coach delivery truck trailer motorcycle evehicle custom1 custom2" speed="22.22" length="7.46" shape="272.65,442.13 273.30,444.21 273.42,445.76 273.62,447.26 274.48,449.23"/>
        <lane id=":1888071023_0_2" index="2" allow="private emergency authority army vip passenger hov taxi bus coach delivery truck trailer motorcycle evehicle custom1 custom2" speed="22.22" length="7.46" shape="269.72,443.41 270.41,445.60 270.57,447.21 270.80,448.79 271.73,450.86"/>
    </edge>
    <edge id=":2847672357_0" function="internal">
        <lane id=":2847672357_0_0" index="0" disallow="tram rail_urban rail rail_electric rail_fast ship container cable_car subway aircraft wheelchair scooter drone" speed="27.78" length="8.17" shape="91.42,282.61 89.06,282.47 87.42,282.77 85.78,283.08 83.40,283.00"/>
        <lane id=":2847672357_0_1" index="1" disallow="tram rail_urban rail rail_electric rail_fast ship container cable_car subway aircraft wheelchair scooter drone" speed="27.78" length="8.17" shape="91.42,282.61 89.12,281.98 87.64,281.18 86.16,280.41 83.85,279.83"/>
        <lane id=":2847672357_0_2" index="2" disallow="tram rail_urban rail rail_electric rail_fast ship container cable_car subway aircraft wheelchair scooter drone" speed="27.78" length="8.17" shape="91.95,279.46 89.63,278.82 88.13,278.02 86.63,277.24 84.30,276.66"/>
        <lane id=":2847672357_0_3" index="3" disallow="tram rail_urban rail rail_electric rail_fast ship container cable_car subway aircraft wheelchair scooter drone" speed="27.78" length="8.17" shape="92.48,276.30 90.13,275.66 88.62,274.86 87.10,274.08 84.75,273.49"/>
    </edge>
    <edge id=":34136698_0" function="internal">
        <lane id=":34136698_0_0" index="0" disallow="tram rail_urban rail rail_electric rail_fast ship container cable_car subway aircraft wheelchair scooter drone" speed="20.84" length="0.25" shape="238.98,285.73 239.27,285.79"/>
        <lane id=":34136698_0_1" index="1" disallow="tram rail_urban rail rail_electric rail_fast ship container cable_car subway aircraft wheelchair scooter drone" speed="20.84" length="0.25" shape="238.36,288.86 238.55,288.91"/>
    </edge>
    <edge id=":363466018_0" function="internal">
        <lane id=":363466018_0_0" index="0" allow="private emergency authority army vip passenger hov taxi bus coach delivery truck trailer motorcycle evehicle custom1 custom2" speed="16.66" length="2.58" shape="244.72,314.36 242.20,313.81"/>
    </edge>
    <edge id=":363466018_1" function="internal">
        <lane id=":363466018_1_0" index="0" disallow="tram rail_urban rail rail_electric rail_fast ship container cable_car subway aircraft wheelchair scooter drone" speed="23.61" length="3.40" shape="245.50,311.25 242.50,312.18"/>
        <lane id=":363466018_1_1" index="1" disallow="tram rail_urban rail rail_electric rail_fast ship container cable_car subway aircraft wheelchair scooter drone" speed="23.61" length="3.40" shape="246.28,308.15 245.33,308.17 244.68,308.58 244.04,308.99 243.08,309.03"/>
        <lane id=":363466018_1_2" index="2" disallow="tram rail_urban rail rail_electric rail_fast ship container cable_car subway aircraft wheelchair scooter drone" speed="23.61" length="3.40" shape="247.06,305.04 246.05,305.05 245.36,305.45 244.67,305.86 243.66,305.88"/>
    </edge>
    <edge id=":4433777899_0" function="internal">
        <lane id=":4433777899_0_0" index="0" allow="private emergency authority army vip passenger hov taxi bus coach delivery truck trailer motorcycle evehicle custom1 custom2" speed="22.22" length="7.29" shape="342.03,693.91 342.56,695.96 343.33,697.24 344.20,698.50 345.02,700.49"/>
    </edge>
    <edge id=":4443426190_0" function="internal">
        <lane id=":4443426190_0_0" index="0" allow="private emergency authority army vip passenger hov taxi bus coach delivery truck trailer motorcycle evehicle custom1 custom2" speed="22.22" length="8.07" shape="412.15,469.54 411.25,471.76 410.96,473.42 410.64,475.06 409.64,477.23"/>
        <lane id=":4443426190_0_1" index="1" allow="private emergency authority army vip passenger hov taxi bus coach delivery truck trailer motorcycle evehicle custom1 custom2" speed="22.22" length="8.07" shape="409.33,468.03 408.44,470.21 408.17,471.84 407.87,473.46 406.90,475.59"/>
    </edge>
    <edge id=":5020680597_0" function="internal">
        <lane id=":5020680597_0_0" index="0" allow="private emergency authority army vip passenger hov taxi bus coach delivery truck trailer motorcycle evehicle custom1 custom2" speed="13.89" length="0.41" shape="51.82,291.93 51.76,291.93 51.72,291.94 51.67,291.95 51.62,291.96"/>
        <lane id=":5020680597_0_1" index="1" allow="private emergency authority army vip passenger hov taxi bus coach delivery truck trailer motorcycle evehicle custom1 custom2" speed="13.89" length="0.41" shape="51.57,288.74 51.39,288.75 51.27,288.77 51.14,288.79 50.97,288.82"/>
    </edge>
    <edge id=":6924796156_0" function="internal">
        <lane id=":6924796156_0_0" index="0" allow="private emergency authority army vip passenger hov taxi bus coach delivery truck trailer motorcycle evehicle custom1 custom2" speed="21.63" length="11.41" shape="432.12,428.75 430.25,431.25 428.93,433.23 427.92,435.48 426.97,438.79"/>
    </edge>
    <edge id=":6924796156_1" function="internal">
        <lane id=":6924796156_1_0" index="0" allow="private emergency authority army vip passenger hov taxi bus coach delivery truck trailer motorcycle evehicle custom1 custom2" speed="22.22" length="12.03" shape="428.88,427.32 427.51,430.56 426.20,432.64 424.97,434.74 423.86,438.05"/>
        <lane id=":6924796156_1_1" index="1" allow="private emergency authority army vip passenger hov taxi bus coach delivery truck trailer motorcycle evehicle custom1 custom2" speed="22.22" length="12.03" shape="425.84,426.33 424.45,429.64 423.12,431.76 421.87,433.92 420.75,437.31"/>
    </edge>
    <edge id=":6924796177_0" function="internal">
        <lane id=":6924796177_0_0" index="0" allow="private emergency authority army vip passenger hov taxi bus coach delivery truck trailer motorcycle evehicle custom1 custom2" speed="22.22" length="0.25" shape="452.92,344.83 453.21,344.97"/>
        <lane id=":6924796177_0_1" index="1" allow="private emergency authority army vip passenger hov taxi bus coach delivery truck trailer motorcycle evehicle custom1 custom2" speed="22.22" length="0.25" shape="451.53,347.71 451.69,347.79"/>
    </edge>
    <edge id=":6928860400_0" function="internal">
        <lane id=":6928860400_0_0" index="0" allow="private emergency authority army vip passenger hov taxi bus coach delivery truck trailer motorcycle evehicle custom1 custom2" speed="13.89" length="7.85" shape="129.55,293.11 127.28,292.95 125.71,293.26 124.13,293.62 121.83,293.64"/>
        <lane id=":6928860400_0_1" index="1" allow="private emergency authority army vip passenger hov taxi bus coach delivery truck trailer motorcycle evehicle custom1 custom2" speed="13.89" length="7.85" shape="129.55,293.11 127.31,292.45 125.86,291.66 124.41,290.93 122.14,290.46"/>
    </edge>
    <edge id=":6943906070_0" function="internal">
        <lane id=":6943906070_0_0" index="0" disallow="moped bicycle tram rail_urban rail rail_electric rail_fast ship container cable_car subway aircraft wheelchair scooter drone" speed="22.22" length="8.00" shape="560.37,407.72 562.47,408.75 564.08,409.08 565.72,409.36 567.90,410.25"/>
    </edge>
    <edge id=":cluster_2221484889_8595001366_0" function="internal">
        <lane id=":cluster_2221484889_8595001366_0_0" index="0" allow="private emergency authority army vip passenger hov taxi bus coach delivery truck trailer motorcycle evehicle custom1 custom2" speed="20.83" length="18.28" shape="499.58,409.67 494.01,407.60 489.45,406.65 485.51,406.28 481.81,405.92"/>
    </edge>
    <edge id=":cluster_2221484889_8595001366_1" function="internal">
        <lane id=":cluster_2221484889_8595001366_1_0" index="0" disallow="tram rail_urban rail rail_electric rail_fast ship container cable_car subway aircraft wheelchair scooter drone" speed="19.44" length="25.27" shape="499.58,409.67 476.71,399.44"/>
        <lane id=":cluster_2221484889_8595001366_1_1" index="1" disallow="tram rail_urban rail rail_electric rail_fast ship container cable_car subway aircraft wheelchair scooter drone" speed="19.44" length="25.27" shape="500.91,406.76 477.90,396.48"/>
        <lane id=":cluster_2221484889_8595001366_1_2" index="2" disallow="tram rail_urban rail rail_electric rail_fast ship container cable_car subway aircraft wheelchair scooter drone" speed="19.44" length="25.27" shape="502.23,403.85 479.09,393.51"/>
        <lane id=":cluster_2221484889_8595001366_1_3" index="3" disallow="tram rail_urban rail rail_electric rail_fast ship container cable_car subway aircraft wheelchair scooter drone" speed="19.44" length="25.27" shape="503.56,400.93 480.29,390.54"/>
    </edge>
    <edge id=":cluster_2252682311_271878068_2847672361_3123446741_#8more_0" function="internal">
        <lane id=":cluster_2252682311_271878068_2847672361_3123446741_#8more_0_0" index="0" allow="private emergency authority army vip passenger hov taxi bus coach delivery truck trailer motorcycle evehicle custom1 custom2" speed="9.74" length="12.58" shape="403.03,374.40 402.18,372.07 400.40,369.94 397.71,368.00 394.10,366.25"/>
        <lane id=":cluster_2252682311_271878068_2847672361_3123446741_#8more_0_1" index="1" allow="private emergency authority army vip passenger hov taxi bus coach delivery truck trailer motorcycle evehicle custom1 custom2" speed="10.89" length="15.86" shape="406.18,373.89 405.11,370.74 402.93,367.93 399.66,365.44 395.30,363.28"/>
        <lane id=":cluster_2252682311_271878068_2847672361_3123446741_#8more_0_2" index="2" allow="private emergency authority army vip passenger hov taxi bus coach delivery truck trailer motorcycle evehicle custom1 custom2" speed="11.40" length="17.46" shape="406.18,373.89 404.96,369.17 402.94,365.34 400.12,362.39 396.50,360.32"/>
        <lane id=":cluster_2252682311_271878068_2847672361_3123446741_#8more_0_3" index="3" allow="private emergency authority army vip passenger hov taxi bus coach delivery truck trailer motorcycle evehicle custom1 custom2" speed="12.40" length="20.75" shape="409.34,373.38 407.89,367.85 405.46,363.33 402.07,359.83 397.70,357.35"/>
    </edge>
    <edge id=":cluster_2252682311_271878068_2847672361_3123446741_#8more_4" function="internal">
        <lane id=":cluster_2252682311_271878068_2847672361_3123446741_#8more_4_0" index="0" disallow="tram rail_urban rail rail_electric rail_fast ship container cable_car subway aircraft wheelchair scooter drone" speed="19.44" length="59.92" shape="449.52,388.62 394.10,366.25"/>
        <lane id=":cluster_2252682311_271878068_2847672361_3123446741_#8more_4_1" index="1" disallow="tram rail_urban rail rail_electric rail_fast ship container cable_car subway aircraft wheelchair scooter drone" speed="19.44" length="59.92" shape="450.82,385.70 395.30,363.28"/>
        <lane id=":cluster_2252682311_271878068_2847672361_3123446741_#8more_4_2" index="2" disallow="tram rail_urban rail rail_electric rail_fast ship container cable_car subway aircraft wheelchair scooter drone" speed="19.44" length="59.92" shape="452.11,382.77 396.50,360.32"/>
        <lane id=":cluster_2252682311_271878068_2847672361_3123446741_#8more_4_3" index="3" disallow="tram rail_urban rail rail_electric rail_fast ship container cable_car subway aircraft wheelchair scooter drone" speed="19.44" length="59.92" shape="453.41,379.84 397.70,357.35"/>
    </edge>
    <edge id=":cluster_2252682311_271878068_2847672361_3123446741_#8more_8" function="internal">
        <lane id=":cluster_2252682311_271878068_2847672361_3123446741_#8more_8_0" index="0" disallow="tram rail_urban rail rail_electric rail_fast ship container cable_car subway aircraft wheelchair scooter drone" speed="27.78" length="60.73" shape="405.75,337.52 460.12,364.69"/>
        <lane id=":cluster_2252682311_271878068_2847672361_3123446741_#8more_8_1" index="1" disallow="tram rail_urban rail rail_electric rail_fast ship container cable_car subway aircraft wheelchair scooter drone" speed="27.78" length="60.73" shape="404.55,340.48 458.82,367.61"/>
    </edge>
    <edge id=":cluster_2252682311_271878068_2847672361_3123446741_#8more_10" function="internal">
        <lane id=":cluster_2252682311_271878068_2847672361_3123446741_#8more_10_0" index="0" allow="private emergency authority army vip passenger hov taxi bus coach delivery truck trailer motorcycle evehicle custom1 custom2" speed="17.04" length="69.07" shape="403.35,343.45 424.75,354.25 438.34,365.88 444.13,378.35 442.10,391.65"/>
        <lane id=":cluster_2252682311_271878068_2847672361_3123446741_#8more_10_1" index="1" allow="private emergency authority army vip passenger hov taxi bus coach delivery truck trailer motorcycle evehicle custom1 custom2" speed="16.41" length="63.93" shape="402.14,346.41 422.30,356.48 435.19,367.17 440.81,378.47 439.16,390.38"/>
    </edge>

    <edge id="1047696857" from="2847672357" to="5020680581" name="שדרות שבעת הכוכבים" priority="12" type="highway.primary" spreadType="center">
        <lane id="1047696857_0" index="0" disallow="tram rail_urban rail rail_electric rail_fast ship container cable_car subway aircraft wheelchair scooter drone" speed="27.78" length="35.83" shape="83.40,283.00 47.93,277.98">
            <param key="origId" value="1047696857"/>
        </lane>
        <lane id="1047696857_1" index="1" disallow="tram rail_urban rail rail_electric rail_fast ship container cable_car subway aircraft wheelchair scooter drone" speed="27.78" length="35.83" shape="83.85,279.83 48.38,274.81">
            <param key="origId" value="1047696857"/>
        </lane>
        <lane id="1047696857_2" index="2" disallow="tram rail_urban rail rail_electric rail_fast ship container cable_car subway aircraft wheelchair scooter drone" speed="27.78" length="35.83" shape="84.30,276.66 48.82,271.65">
            <param key="origId" value="1047696857"/>
        </lane>
        <lane id="1047696857_3" index="3" disallow="tram rail_urban rail rail_electric rail_fast ship container cable_car subway aircraft wheelchair scooter drone" speed="27.78" length="35.83" shape="84.75,273.49 49.27,268.48">
            <param key="origId" value="1047696857"/>
        </lane>
        <param key="ref" value="541"/>
    </edge>
    <edge id="1092819225" from="34136698" to="1888071004" name="שדרות שבעת הכוכבים" priority="12" type="highway.primary" spreadType="center" shape="238.79,287.32 272.65,295.13 298.54,301.36">
        <lane id="1092819225_0" index="0" disallow="tram rail_urban rail rail_electric rail_fast ship container cable_car subway aircraft wheelchair scooter drone" speed="27.78" length="57.30" shape="239.27,285.79 273.02,293.57 295.07,298.88">
            <param key="origId" value="1092819225"/>
        </lane>
        <lane id="1092819225_1" index="1" disallow="tram rail_urban rail rail_electric rail_fast ship container cable_car subway aircraft wheelchair scooter drone" speed="27.78" length="57.30" shape="238.55,288.91 272.28,296.69 294.32,301.99">
            <param key="origId" value="1092819225"/>
        </lane>
        <param key="ref" value="541"/>
    </edge>
    <edge id="212271963#1" from="cluster_2221484889_8595001366" to="6924796156" priority="9" type="highway.motorway_link" spreadType="center" shape="484.85,406.36 471.46,404.44 459.94,406.52 453.60,410.19 447.28,414.15 440.30,420.01 435.46,424.18 431.83,429.14 427.33,437.20">
        <lane id="212271963#1_0" index="0" allow="private emergency authority army vip passenger hov taxi bus coach delivery truck trailer motorcycle evehicle custom1 custom2" speed="22.22" length="58.11" shape="481.81,405.92 471.46,404.44 459.94,406.52 453.60,410.19 447.28,414.15 440.30,420.01 435.46,424.18 432.12,428.75">
            <param key="origId" value="212271963"/>
        </lane>
        <param key="origFrom" value="8595001366"/>
    </edge>
    <edge id="215834149" from="1537093185" to="34136698" name="שדרות שבעת הכוכבים" priority="12" type="highway.primary" spreadType="center" shape="9.40,246.54 84.84,258.62 194.55,278.55 238.79,287.32">
        <lane id="215834149_0" index="0" disallow="tram rail_urban rail rail_electric rail_fast ship container cable_car subway aircraft wheelchair scooter drone" speed="13.89" length="232.88" shape="9.65,244.96 85.11,257.04 194.85,276.98 238.98,285.73">
            <param key="origId" value="215834149 32299305"/>
        </lane>
        <lane id="215834149_1" index="1" disallow="tram rail_urban rail rail_electric rail_fast ship container cable_car subway aircraft wheelchair scooter drone" speed="13.89" length="232.88" shape="9.15,248.12 84.57,260.20 194.25,280.12 238.36,288.86">
            <param key="origId" value="215834149 32299305"/>
        </lane>
        <param key="ref" value="541"/>
    </edge>
    <edge id="215834159" from="cluster_2252682311_271878068_2847672361_3123446741_#8more" to="363466018" name="שדרות שבעת הכוכבים" priority="12" type="highway.primary" spreadType="center" shape="395.90,361.80 317.81,330.11 281.22,318.56 244.61,309.38">
        <lane id="215834159_0" index="0" disallow="tram rail_urban rail rail_electric rail_fast ship container cable_car subway aircraft wheelchair scooter drone" speed="19.44" length="159.07" shape="394.10,366.25 316.18,334.63 279.91,323.18 244.72,314.36">
            <param key="origId" value="215834159"/>
        </lane>
        <lane id="215834159_1" index="1" disallow="tram rail_urban rail rail_electric rail_fast ship container cable_car subway aircraft wheelchair scooter drone" speed="19.44" length="159.07" shape="395.30,363.28 317.27,331.62 280.78,320.10 245.50,311.25">
            <param key="origId" value="215834159"/>
        </lane>
        <lane id="215834159_2" index="2" disallow="tram rail_urban rail rail_electric rail_fast ship container cable_car subway aircraft wheelchair scooter drone" speed="19.44" length="159.07" shape="396.50,360.32 318.35,328.60 281.66,317.02 246.28,308.15">
            <param key="origId" value="215834159"/>
        </lane>
        <lane id="215834159_3" index="3" disallow="tram rail_urban rail rail_electric rail_fast ship container cable_car subway aircraft wheelchair scooter drone" speed="19.44" length="159.07" shape="397.70,357.35 319.44,325.59 282.53,313.94 247.06,305.04">
            <param key="origId" value="215834159"/>
        </lane>
        <param key="origFrom" value="271878068"/>
        <param key="ref" value="541"/>
    </edge>
    <edge id="215834169" from="1261680371" to="114130298" name="שדרות שבעת הכוכבים" priority="12" type="highway.primary" spreadType="center">
        <lane id="215834169_0" index="0" disallow="tram rail_urban rail rail_electric rail_fast ship container cable_car subway aircraft wheelchair scooter drone" speed="27.78" length="158.23" acceleration="1" shape="591.27,422.69 732.45,494.12">
            <param key="origId" value="215834169"/>
        </lane>
        <lane id="215834169_1" index="1" disallow="tram rail_urban rail rail_electric rail_fast ship container cable_car subway aircraft wheelchair scooter drone" speed="27.78" length="158.23" shape="589.83,425.54 731.01,496.98">
            <param key="origId" value="215834169"/>
        </lane>
        <lane id="215834169_2" index="2" disallow="tram rail_urban rail rail_electric rail_fast ship container cable_car subway aircraft wheelchair scooter drone" speed="27.78" length="158.23" shape="588.38,428.40 729.57,499.84">
            <param key="origId" value="215834169"/>
        </lane>
        <param key="ref" value="541"/>
    </edge>
    <edge id="215834187#0" from="cluster_2221484889_8595001366" to="cluster_2252682311_271878068_2847672361_3123446741_#8more" name="שדרות שבעת הכוכבים" priority="12" type="highway.primary" spreadType="center" shape="480.63,395.85 468.55,390.99 451.16,384.11">
        <lane id="215834187#0_0" index="0" disallow="tram rail_urban rail rail_electric rail_fast ship container cable_car subway aircraft wheelchair scooter drone" speed="19.44" length="29.09" shape="476.71,399.44 466.77,395.45 449.52,388.62">
            <param key="origId" value="215834187"/>
        </lane>
        <lane id="215834187#0_1" index="1" disallow="tram rail_urban rail rail_electric rail_fast ship container cable_car subway aircraft wheelchair scooter drone" speed="19.44" length="29.09" shape="477.90,396.48 467.96,392.48 450.82,385.70">
            <param key="origId" value="215834187"/>
        </lane>
        <lane id="215834187#0_2" index="2" disallow="tram rail_urban rail rail_electric rail_fast ship container cable_car subway aircraft wheelchair scooter drone" speed="19.44" length="29.09" shape="479.09,393.51 469.14,389.50 452.11,382.77">
            <param key="origId" value="215834187"/>
        </lane>
        <lane id="215834187#0_3" index="3" disallow="tram rail_urban rail rail_electric rail_fast ship container cable_car subway aircraft wheelchair scooter drone" speed="19.44" length="29.09" shape="480.29,390.54 470.33,386.53 453.41,379.84">
            <param key="origId" value="215834187"/>
        </lane>
        <param key="origFrom" value="2221484889"/>
        <param key="origTo" value="6928860393"/>
        <param key="ref" value="541"/>
    </edge>
    <edge id="215834211#0" from="1888071023" to="cluster_2252682311_271878068_2847672361_3123446741_#8more" priority="9" type="highway.motorway_link" spreadType="center" shape="272.64,446.10 278.62,456.25 284.00,463.42 289.97,469.98 295.34,474.49 303.89,479.89 314.31,484.39 323.88,486.64 333.20,487.61 341.86,487.61 350.78,485.71 358.36,482.34 365.75,476.87 372.65,470.11 377.65,463.31 383.58,450.89 388.83,437.63 392.49,430.57 395.25,423.04 402.39,412.15 404.77,405.94 406.39,396.19 407.17,388.97 407.17,380.03 405.93,372.30">
        <lane id="215834211#0_0" index="0" allow="private emergency authority army vip passenger hov taxi bus coach delivery truck trailer motorcycle evehicle custom1 custom2" speed="22.22" length="223.00" shape="277.24,447.61 281.29,454.47 286.47,461.38 292.19,467.67 297.23,471.90 305.39,477.05 315.32,481.34 324.41,483.48 333.37,484.41 341.52,484.41 349.79,482.65 356.74,479.56 363.67,474.43 370.23,468.01 374.89,461.66 380.65,449.61 385.91,436.30 389.56,429.28 392.37,421.59 399.53,410.68 401.67,405.10 403.22,395.76 403.97,388.80 403.97,380.29 403.03,374.40">
            <param key="origId" value="215834211"/>
        </lane>
        <lane id="215834211#0_1" index="1" allow="private emergency authority army vip passenger hov taxi bus coach delivery truck trailer motorcycle evehicle custom1 custom2" speed="22.22" length="223.00" shape="274.48,449.23 278.62,456.25 284.00,463.42 289.97,469.98 295.34,474.49 303.89,479.89 314.31,484.39 323.88,486.64 333.20,487.61 341.86,487.61 350.78,485.71 358.36,482.34 365.75,476.87 372.65,470.11 377.65,463.31 383.58,450.89 388.83,437.63 392.49,430.57 395.25,423.04 402.39,412.15 404.77,405.94 406.39,396.19 407.17,388.97 407.17,380.03 406.18,373.89">
            <param key="origId" value="215834211"/>
        </lane>
        <lane id="215834211#0_2" index="2" allow="private emergency authority army vip passenger hov taxi bus coach delivery truck trailer motorcycle evehicle custom1 custom2" speed="22.22" length="223.00" shape="271.73,450.86 275.95,458.03 281.53,465.46 287.75,472.29 293.45,477.08 302.39,482.73 313.30,487.44 323.35,489.80 333.03,490.81 342.20,490.81 351.77,488.77 359.98,485.12 367.83,479.31 375.07,472.21 380.41,464.96 386.51,452.17 391.75,438.96 395.42,431.86 398.13,424.49 405.25,413.62 407.87,406.78 409.56,396.62 410.37,389.14 410.37,379.77 409.34,373.38">
            <param key="origId" value="215834211"/>
        </lane>
        <param key="origTo" value="2847672361"/>
    </edge>
    <edge id="231949487" from="363462452" to="1888071023" priority="9" type="highway.motorway_link" spreadType="center" shape="187.45,192.38 216.56,279.58 229.94,321.14 264.28,425.19 268.47,436.54 272.64,446.10">
        <lane id="231949487_0" index="0" allow="private emergency authority army vip passenger hov taxi bus coach delivery truck trailer motorcycle evehicle custom1 custom2" speed="22.22" length="264.06" shape="188.97,191.87 218.08,279.08 231.46,320.64 265.79,424.66 269.96,435.94 272.65,442.13">
            <param key="origId" value="231949487 216248448 216248449"/>
        </lane>
        <lane id="231949487_1" index="1" allow="private emergency authority army vip passenger hov taxi bus coach delivery truck trailer motorcycle evehicle custom1 custom2" speed="22.22" length="264.06" shape="185.93,192.89 215.04,280.08 228.42,321.64 262.77,425.72 266.98,437.14 269.72,443.41">
            <param key="origId" value="231949487 216248448 216248449"/>
        </lane>
    </edge>
    <edge id="280702848" from="363466018" to="6928860400" priority="9" type="highway.motorway_link" spreadType="center" shape="243.45,314.04 125.79,292.42">
        <lane id="280702848_0" index="0" allow="private emergency authority army vip passenger hov taxi bus coach delivery truck trailer motorcycle evehicle custom1 custom2" speed="13.89" length="114.54" shape="242.20,313.81 129.55,293.11">
            <param key="origId" value="280702848"/>
        </lane>
    </edge>