<?xml version="1.0" encoding="UTF-8"?>

<!-- generated on 2024-07-17 23:31:12 by Eclipse SUMO sumo Version 1.20.0
-->

<configuration xmlns:xsi="http://www.w3.org/2001/XMLSchema-instance" xsi:noNamespaceSchemaLocation="http://sumo.dlr.de/xsd/sumoConfiguration.xsd">

    <input>
        <net-file value="intersection_3.net.xml"/>
        <route-files value="routes_3_hour/intersection_3_08_09_.rou.xml"/>
    </input>

</configuration>
