<routes xmlns:xsi="http://www.w3.org/2001/XMLSchema-instance" xsi:noNamespaceSchemaLocation="http://sumo.dlr.de/xsd/routes_file.xsd">
    
    <route id="E_N" edges="741765613 212271963#1 740504606 462383650" />
    <route id="E_W" edges="741765613 215834187#0 215834159 32299296 1047696857" />
    <route id="N_W" edges="231949487 215834211#0 215834159 32299296 1047696857" />
    <route id="W_E" edges="215834149 1092819225 32299300 740504604#2 215834169" />
    <route id="W_N" edges="215834149 1092819225 32299300 740504605#1 740504606 462383650" />
<flow id="f_0" begin="0.00" route="E_N" end="3600.00" vehsPerHour="692" /><!--
--><flow id="f_1" begin="0.00" route="E_W" end="3600.00" vehsPerHour="509" /><!--
--><flow id="f_2" begin="0.00" route="N_W" end="3600.00" vehsPerHour="821" /><!--
--><flow id="f_3" begin="0.00" route="W_E" end="3600.00" vehsPerHour="845" /><!--
--><flow id="f_4" begin="0.00" route="W_N" end="3600.00" vehsPerHour="682" /><!--
--></routes>