<?xml version="1.0" encoding="UTF-8"?>

<!-- generated on 2024-06-29 12:21:32 by Eclipse SUMO netedit Version 1.20.0
-->

<routes xmlns:xsi="http://www.w3.org/2001/XMLSchema-instance" xsi:noNamespaceSchemaLocation="http://sumo.dlr.de/xsd/routes_file.xsd">
    <!-- Routes -->
    <route id="E_N" edges="12526870#1 12526870#2 280702840#2 225589910#3 225589910#4 244869363#0"/>
    <route id="E_S" edges="12526870#1 12526870#2 12526870#3 E0 E2"/>
    <route id="E_W" edges="12526870#1 12526870#2 12526870#3 971472783#1 971472770 5066149"/>
    <route id="N_E" edges="32293940#0 32293940#1 30307284#2 30307284#3 30307284#4 30307284#5 30307284#6"/>
    <route id="N_S" edges="32293940#0 32293940#1 E0 E2"/>
    <route id="N_W" edges="32293940#0 225589919#0 225589919#1 971472770 5066149"/>
    <route id="S_E" edges="E3 225589921#0 225589921#1 30307284#3 30307284#4 30307284#5 30307284#6"/>
    <route id="S_N" edges="E3 E1 225589910#2 225589910#3 225589910#4 244869363#0"/>
    <route id="S_W" edges="E3 E1 971472783#1 971472770 5066149"/>
    <route id="W_E" edges="215834190 244869371#0 244869371#1 30307284#2 30307284#3 30307284#4 30307284#5 30307284#6"/>
    <route id="W_N" edges="215834190 244869371#0 244869371#1 225589910#2 225589910#3 225589910#4"/>
    <route id="W_S" edges="215834190 244869371#0 225589914#0 225589914#1 E2"/>
</routes>
