<routes xmlns:xsi="http://www.w3.org/2001/XMLSchema-instance" xsi:noNamespaceSchemaLocation="http://sumo.dlr.de/xsd/routes_file.xsd">
    
    <route id="E_N" edges="12526870#1 12526870#2 280702840#2 225589910#3 225589910#4 244869363#0" />
    <route id="E_S" edges="12526870#1 12526870#2 12526870#3 E0 E2" />
    <route id="E_W" edges="12526870#1 12526870#2 12526870#3 971472783#1 971472770 5066149" />
    <route id="N_E" edges="32293940#0 32293940#1 30307284#2 30307284#3 30307284#4 30307284#5 30307284#6" />
    <route id="N_S" edges="32293940#0 32293940#1 E0 E2" />
    <route id="N_W" edges="32293940#0 225589919#0 971472770 5066149" />
    <route id="S_E" edges="E3 225589921#0 30307284#3 30307284#4 30307284#5 30307284#6" />
    <route id="S_N" edges="E3 E1 225589910#2 225589910#3 225589910#4 244869363#0" />
    <route id="S_W" edges="E3 E1 971472783#1 971472770 5066149" />
    <route id="W_E" edges="215834190 244869371#0 244869371#1 30307284#2 30307284#3 30307284#4 30307284#5 30307284#6" />
    <route id="W_N" edges="215834190 244869371#0 244869371#1 225589910#2 225589910#3 225589910#4" />
    <route id="W_S" edges="215834190 244869371#0 225589914#0 E2" />
<flow id="f_0" begin="0.00" route="E_N" end="3600.00" vehsPerHour="2072" /><!--
--><flow id="f_1" begin="0.00" route="E_S" end="3600.00" vehsPerHour="2161" /><!--
--><flow id="f_2" begin="0.00" route="E_W" end="3600.00" vehsPerHour="2021" /><!--
--><flow id="f_3" begin="0.00" route="N_E" end="3600.00" vehsPerHour="2101" /><!--
--><flow id="f_4" begin="0.00" route="N_S" end="3600.00" vehsPerHour="2135" /><!--
--><flow id="f_5" begin="0.00" route="N_W" end="3600.00" vehsPerHour="2143" /><!--
--><flow id="f_6" begin="0.00" route="S_E" end="3600.00" vehsPerHour="2061" /><!--
--><flow id="f_7" begin="0.00" route="S_N" end="3600.00" vehsPerHour="1877" /><!--
--><flow id="f_8" begin="0.00" route="S_W" end="3600.00" vehsPerHour="1977" /><!--
--><flow id="f_9" begin="0.00" route="W_E" end="3600.00" vehsPerHour="1959" /><!--
--><flow id="f_10" begin="0.00" route="W_N" end="3600.00" vehsPerHour="1884" /><!--
--><flow id="f_11" begin="0.00" route="W_S" end="3600.00" vehsPerHour="2047" /><!--
--></routes>