<?xml version="1.0" encoding="UTF-8"?>

<!-- generated on 2024-07-21 12:06:55 by Eclipse SUMO netedit Version 1.20.0
-->

<routes xmlns:xsi="http://www.w3.org/2001/XMLSchema-instance" xsi:noNamespaceSchemaLocation="http://sumo.dlr.de/xsd/routes_file.xsd">
    <!-- Routes -->
    <route id="E_N_1" edges="E_W_1 E4 225589910#3 225589910#4" color="red"/>
    <route id="E_N_1_2" edges="E_W_1 E_W_2 971472783#1 971472770 5066149 E7" color="red"/>
    <route id="E_N_1_3" edges="E_W_1 E_W_2 971472783#1 971472770 5066149 215834150 215834183 212271963#1 740504606 462383650" color="red"/>
    <route id="E_N_1_4" edges="E_W_1 E_W_2 971472783#1 971472770 5066149 215834150 215834183 215834187#0 215834159 32299296 E_W_3_2_3 178456429#0 889092618#2-AddedOnRampEdge 889092618#2" color="red"/>
    <route id="E_N_1_5" edges="E_W_1 E_W_2 971472783#1 971472770 5066149 215834150 215834183 215834187#0 215834159 32299296 E_W_3_2_3 739661099 740524787#2 24862060#0 230054301" color="red"/>
    <route id="E_S_1_4" edges="E2 E3 971472783#1 971472770 5066149 215834150 215834183 215834187#0 215834159 280702848 740524789" color="blue"/>
    <route id="E_S_1_6" edges="E_W_2 971472783#1 971472770 5066149 215834150 215834183 215834187#0 215834159 32299296 E_W_3_2_3 739661099 740524787#2 198505048#1 5066150 321331231 215840480" color="red"/>
    <route id="E_W_1" edges="E_W_1 E_W_2 971472783#1 971472770 30131289" color="red"/>
    <route id="N_E_2_1" edges="E5 E6 215834190#1 244869371#0 244869371#1 30307284#2 30307284#3 30307284#4"/>
    <route id="N_E_4_1" edges="178456430#0 178456430#0-AddedOffRampEdge 178456430#1 889092620#0 215834149 1092819225 32299300 740504604#2 215834169 W_E_3_2 215834154 215834190#1 244869371#0 244869371#1 30307284#2 30307284#3 30307284#4" color="green"/>
    <route id="N_N_2_1" edges="E5 E6 215834190#1 244869371#0 244869371#1 225589910#2 225589910#3 225589910#4"/>
    <route id="N_N_2_3" edges="E5 33658264#0 215834183 212271963#1 740504606 462383650 741765612" color="green"/>
    <route id="N_N_3_4" edges="178456430#0 178456430#0-AddedOffRampEdge 97803900#0 740524787#2 24862060#0 230054301" color="green"/>
    <route id="N_N_4_1" edges="178456430#0 178456430#0-AddedOffRampEdge 178456430#1 889092620#0 215834149 1092819225 32299300 740504604#2 215834169 W_E_3_2 215834154 215834190#1 244869371#0 244869371#1 225589910#2 225589910#3 225589910#4" color="green"/>
    <route id="N_N_4_5" edges="178456430#0 178456430#0-AddedOffRampEdge 97803900#0 740524787#2 24862060#0 230054301" color="green"/>
    <route id="N_N_6_1" edges="973340103 413008146#0 413008146#1 1092819228#0 1092819228#1 139252069 1279598614#1 740504608 740504607 215834156#0 889092620#0 215834149 1092819225 32299300 740504604#2 215834169 W_E_3_2 215834154 215834190#1 244869371#0 244869371#1 225589910#2 225589910#3 225589910#4" color="green"/>
    <route id="N_N_6_2" edges="973340103 413008146#0 413008146#1 1092819228#0 1092819228#1 139252069 1279598614#1 740504608 740504607 215834156#0 889092620#0 215834149 1092819225 32299300 740504604#2 215834169 W_E_3_2 215834154 E7" color="green"/>
    <route id="N_N_6_3" edges="973340103 413008146#0 413008146#1 1092819228#0 1092819228#1 139252069 1279598614#1 740504608 740504607 215834156#0 889092620#0 215834149 1092819225 32299300 740504605#1 740504606 462383650" color="green"/>
    <route id="N_N_6_4" edges="973340103 413008146#0 413008146#1 1092819228#0 1092819228#1 139252069 1279598614#1 740504608 740504607 215834156#0 889092618#1 889092618#2-AddedOnRampEdge 889092618#2" color="green"/>
    <route id="N_N_6_5" edges="973340103 413008146#0 413008146#1 1092819228#0 1092819228#1 139252069 180166262#0 230054301" color="green"/>
    <route id="N_S_1" edges="32293940#0 32293940#1 E0 E1" color="green"/>
    <route id="N_S_1_3" edges="32293940#0 225589919#0 971472770 5066149 215834150 215834183 215834187#0 215834159 280702848 740524789" color="green"/>
    <route id="N_S_1_6" edges="32293940#0 225589919#0 971472770 5066149 215834150 215834183 215834187#0 215834159 32299296 E_W_3_2_3 739661099 740524787#2 198505048#1 5066150 321331231 215840480" color="green"/>
    <route id="N_S_2_1" edges="E5 E6 215834190#1 244869371#0 225589914#0 E1"/>
    <route id="N_S_2_4" edges="E5 33658264#0 215834183 215834187#0 215834159 280702848 740524789" color="blue"/>
    <route id="N_S_4" edges="178456430#0 178456430#0-AddedOffRampEdge 178456430#1 889092620#0 30824395#0" color="green"/>
    <route id="N_S_4_1" edges="178456430#0 178456430#0-AddedOffRampEdge 178456430#1 889092620#0 215834149 1092819225 32299300 740504604#2 215834169 W_E_3_2 215834154 215834190#1 244869371#0 225589914#0 E1" color="green"/>
    <route id="N_S_4_6" edges="178456430#0 178456430#0-AddedOffRampEdge 97803900#0 740524787#2 198505048#1 5066150 321331231 215840480" color="green"/>
    <route id="N_S_6" edges="413008146#0 413008146#1 1092819228#0 1092819228#1 321331231 215840480" color="green"/>
    <route id="N_S_6_1" edges="973340103 413008146#0 413008146#1 1092819228#0 1092819228#1 139252069 1279598614#1 740504608 740504607 215834156#0 889092620#0 215834149 1092819225 32299300 740504604#2 215834169 W_E_3_2 215834154 215834190#1 244869371#0 225589914#0 E1" color="green"/>
    <route id="N_S_6_4" edges="973340103 413008146#0 413008146#1 1092819228#0 1092819228#1 139252069 1279598614#1 740504608 740504607 215834156#0 889092620#0 30824395#0" color="green"/>
    <route id="N_W_6" edges="413008146#0 413008146#1 1092819228#0 E8 685510793#0" color="green"/>
    <route id="S_E_1" edges="E2 225589921#0 30307284#3 30307284#4" color="blue"/>
    <route id="S_E_2_1" edges="739569486#0.4 741765615 741765614 215834169 W_E_3_2 215834154 215834190#1 244869371#0 244869371#1 30307284#2 30307284#3 30307284#4" color="blue"/>
    <route id="S_E_5_1" edges="172824408 172824408-AddedOffRampEdge 172824413#0 172824413#0.66 740504608 740504607 215834156#0 889092620#0 215834149 1092819225 32299300 740504604#2 215834169 W_E_3_2 215834154 215834190#1 244869371#0 244869371#1 30307284#2 30307284#3 30307284#4" color="blue"/>
    <route id="S_N_1" edges="E2 E3 225589910#2 225589910#3 225589910#4" color="blue"/>
    <route id="S_N_1_2" edges="E2 E3 971472783#1 971472770 5066149 E7" color="blue"/>
    <route id="S_N_1_3" edges="E2 E3 971472783#1 971472770 5066149 215834150 215834183 212271963#1 740504606 462383650" color="blue"/>
    <route id="S_N_1_4" edges="E2 E3 971472783#1 971472770 5066149 215834150 215834183 215834187#0 215834159 32299296 E_W_3_2_3 178456429#0 889092618#2-AddedOnRampEdge 889092618#2" color="blue"/>
    <route id="S_N_1_5" edges="E2 E3 971472783#1 971472770 5066149 215834150 215834183 215834187#0 215834159 32299296 E_W_3_2_3 739661099 740524787#2 24862060#0 230054301" color="blue"/>
    <route id="S_N_3_4" edges="231949487.4 215834211#0 215834159 32299296 E_W_3_2_3 178456429#0 889092618#2-AddedOnRampEdge 889092618#2" color="blue"/>
    <route id="S_N_3_5" edges="231949487.4 215834211#0 215834159 32299296 E_W_3_2_3 739661099 740524787#2 24862060#0 230054301" color="blue"/>
    <route id="S_N_5" edges="172824408 172824408-AddedOffRampEdge 503584906#0 180166262#0 230054301" color="blue"/>
    <route id="S_N_5_3" edges="172824408 172824408-AddedOffRampEdge 172824413#0 172824413#0.66 740504608 740504607 215834156#0 889092620#0 215834149 1092819225 32299300 740504605#1 740504606 462383650" color="blue"/>
    <route id="S_N_5_4" edges="172824408 172824408-AddedOffRampEdge 172824413#0 172824413#0.66 740504608 740504607 215834156#0 889092618#1 889092618#2-AddedOnRampEdge 889092618#2" color="blue"/>
    <route id="S_S_1_4" edges="E_W_2 971472783#1 971472770 5066149 215834150 215834183 215834187#0 215834159 280702848 740524789" color="blue"/>
    <route id="S_S_3_6" edges="231949487.4 215834211#0 215834159 32299296 E_W_3_2_3 739661099 740524787#2 198505048#1 5066150 321331231 215840480" color="blue"/>
    <route id="S_W_3_6" edges="231949487.4 215834211#0 215834159 32299296 E_W_3_2_3 739661099 740524787#2 198505048#1 5066150 685510796#1 685510793#0" color="blue"/>
    <route id="S_W_5_6" edges="172824408 172824408-AddedOffRampEdge 503584906#0 5066150 685510796#1 685510793#0" color="blue"/>
    <route id="W_E_6_1" edges="685510783#0 139252069 1279598614#1 740504608 740504607 215834156#0 889092620#0 215834149 1092819225 32299300 740504604#2 215834169 W_E_3_2 215834154 215834190#1 244869371#0 244869371#1 30307284#2 30307284#3 30307284#4" color="magenta"/>
    <route id="W_N_6_1" edges="685510783#0 139252069 1279598614#1 740504608 740504607 215834156#0 889092620#0 215834149 1092819225 32299300 740504604#2 215834169 W_E_3_2 215834154 215834190#1 244869371#0 244869371#1 225589910#2 225589910#3 225589910#4" color="magenta"/>
    <route id="W_N_6_2" edges="685510783#0 139252069 1279598614#1 740504608 740504607 215834156#0 889092620#0 215834149 1092819225 32299300 740504604#2 215834169 W_E_3_2 215834154 E7" color="magenta"/>
    <route id="W_N_6_3" edges="685510783#0 139252069 1279598614#1 740504608 740504607 215834156#0 889092620#0 215834149 1092819225 32299300 740504605#1 740504606 462383650" color="magenta"/>
    <route id="W_N_6_4" edges="685510783#0 139252069 1279598614#1 740504608 740504607 215834156#0 889092618#1 889092618#2-AddedOnRampEdge 889092618#2" color="magenta"/>
    <route id="W_N_6_5" edges="685510783#0 139252069 180166262#0 230054301" color="magenta"/>
    <route id="W_S_6" edges="685510783#0 321331231 215840480" color="magenta"/>
    <route id="W_S_6_1" edges="685510783#0 139252069 1279598614#1 740504608 740504607 215834156#0 889092620#0 215834149 1092819225 32299300 740504604#2 215834169 W_E_3_2 215834154 215834190#1 244869371#0 225589914#0 E1" color="magenta"/>
    <route id="W_S_6_4" edges="685510783#0 139252069 1279598614#1 740504608 740504607 215834156#0 889092620#0 30824395#0" color="magenta"/>
</routes>
