<routes xmlns:xsi="http://www.w3.org/2001/XMLSchema-instance" xsi:noNamespaceSchemaLocation="http://sumo.dlr.de/xsd/routes_file.xsd">
    
    <route id="E_N_1" edges="E_W_1 E4 225589910#3 225589910#4" color="red" />
    <route id="E_N_1_2" edges="E_W_1 E_W_2 971472783#1 971472770 5066149 E7" color="red" />
    <route id="E_N_1_3" edges="E_W_1 E_W_2 971472783#1 971472770 5066149 215834150 215834183 212271963#1 740504606 462383650" color="red" />
    <route id="E_N_1_4" edges="E_W_1 E_W_2 971472783#1 971472770 5066149 215834150 215834183 215834187#0 215834159 32299296 E_W_3_2_3 178456429#0 889092618#2-AddedOnRampEdge 889092618#2" color="red" />
    <route id="E_N_1_5" edges="E_W_1 E_W_2 971472783#1 971472770 5066149 215834150 215834183 215834187#0 215834159 32299296 E_W_3_2_3 739661099 740524787#2 24862060#0 230054301" color="red" />
    <route id="E_S_1_4" edges="E2 E3 971472783#1 971472770 5066149 215834150 215834183 215834187#0 215834159 280702848 740524789" color="blue" />
    <route id="E_S_1_6" edges="E_W_2 971472783#1 971472770 5066149 215834150 215834183 215834187#0 215834159 32299296 E_W_3_2_3 739661099 740524787#2 198505048#1 5066150 321331231 215840480" color="red" />
    <route id="N_E_2_1" edges="E5 E6 215834190#1 244869371#0 244869371#1 30307284#2 30307284#3 30307284#4" />
    <route id="N_E_4_1" edges="178456430#0 178456430#0-AddedOffRampEdge 178456430#1 889092620#0 215834149 1092819225 32299300 740504604#2 215834169 W_E_3_2 215834154 215834190#1 244869371#0 244869371#1 30307284#2 30307284#3 30307284#4" color="green" />
    <route id="N_N_2_1" edges="E5 E6 215834190#1 244869371#0 244869371#1 225589910#2 225589910#3 225589910#4" />
    <route id="N_N_2_3" edges="E5 33658264#0 215834183 212271963#1 740504606 462383650 741765612" color="green" />
    <route id="N_N_3_4" edges="178456430#0 178456430#0-AddedOffRampEdge 97803900#0 740524787#2 24862060#0 230054301" color="green" />
    <route id="N_N_4_1" edges="178456430#0 178456430#0-AddedOffRampEdge 178456430#1 889092620#0 215834149 1092819225 32299300 740504604#2 215834169 W_E_3_2 215834154 215834190#1 244869371#0 244869371#1 225589910#2 225589910#3 225589910#4" color="green" />
    <route id="N_N_4_5" edges="178456430#0 178456430#0-AddedOffRampEdge 97803900#0 740524787#2 24862060#0 230054301" color="green" />
    <route id="N_N_6_1" edges="973340103 413008146#0 413008146#1 1092819228#0 1092819228#1 139252069 1279598614#1 740504608 740504607 215834156#0 889092620#0 215834149 1092819225 32299300 740504604#2 215834169 W_E_3_2 215834154 215834190#1 244869371#0 244869371#1 225589910#2 225589910#3 225589910#4" color="green" />
    <route id="N_N_6_2" edges="973340103 413008146#0 413008146#1 1092819228#0 1092819228#1 139252069 1279598614#1 740504608 740504607 215834156#0 889092620#0 215834149 1092819225 32299300 740504604#2 215834169 W_E_3_2 215834154 E7" color="green" />
    <route id="N_N_6_3" edges="973340103 413008146#0 413008146#1 1092819228#0 1092819228#1 139252069 1279598614#1 740504608 740504607 215834156#0 889092620#0 215834149 1092819225 32299300 740504605#1 740504606 462383650" color="green" />
    <route id="N_N_6_4" edges="973340103 413008146#0 413008146#1 1092819228#0 1092819228#1 139252069 1279598614#1 740504608 740504607 215834156#0 889092618#1 889092618#2-AddedOnRampEdge 889092618#2" color="green" />
    <route id="N_N_6_5" edges="973340103 413008146#0 413008146#1 1092819228#0 1092819228#1 139252069 180166262#0 230054301" color="green" />
    <route id="N_S_1" edges="32293940#0 32293940#1 E0 E1" color="green" />
    <route id="N_S_1_3" edges="32293940#0 225589919#0 971472770 5066149 215834150 215834183 215834187#0 215834159 280702848 740524789" color="green" />
    <route id="N_S_1_6" edges="32293940#0 225589919#0 971472770 5066149 215834150 215834183 215834187#0 215834159 32299296 E_W_3_2_3 739661099 740524787#2 198505048#1 5066150 321331231 215840480" color="green" />
    <route id="N_S_2_1" edges="E5 E6 215834190#1 244869371#0 225589914#0 E1" />
    <route id="N_S_2_4" edges="E5 33658264#0 215834183 215834187#0 215834159 280702848 740524789" color="blue" />
    <route id="N_S_4" edges="178456430#0 178456430#0-AddedOffRampEdge 178456430#1 889092620#0 30824395#0" color="green" />
    <route id="N_S_4_1" edges="178456430#0 178456430#0-AddedOffRampEdge 178456430#1 889092620#0 215834149 1092819225 32299300 740504604#2 215834169 W_E_3_2 215834154 215834190#1 244869371#0 225589914#0 E1" color="green" />
    <route id="N_S_4_6" edges="178456430#0 178456430#0-AddedOffRampEdge 97803900#0 740524787#2 198505048#1 5066150 321331231 215840480" color="green" />
    <route id="N_S_6" edges="413008146#0 413008146#1 1092819228#0 1092819228#1 321331231 215840480" color="green" />
    <route id="N_S_6_1" edges="973340103 413008146#0 413008146#1 1092819228#0 1092819228#1 139252069 1279598614#1 740504608 740504607 215834156#0 889092620#0 215834149 1092819225 32299300 740504604#2 215834169 W_E_3_2 215834154 215834190#1 244869371#0 225589914#0 E1" color="green" />
    <route id="N_S_6_4" edges="973340103 413008146#0 413008146#1 1092819228#0 1092819228#1 139252069 1279598614#1 740504608 740504607 215834156#0 889092620#0 30824395#0" color="green" />
    <route id="N_W_6" edges="413008146#0 413008146#1 1092819228#0 E8 685510793#0" color="green" />
    <route id="S_E_1" edges="E2 225589921#0 30307284#3 30307284#4" color="blue" />
    <route id="S_E_2_1" edges="739569486#0.4 741765615 741765614 215834169 W_E_3_2 215834154 215834190#1 244869371#0 244869371#1 30307284#2 30307284#3 30307284#4" color="blue" />
    <route id="S_E_5_1" edges="172824408 172824408-AddedOffRampEdge 172824413#0 172824413#0.66 740504608 740504607 215834156#0 889092620#0 215834149 1092819225 32299300 740504604#2 215834169 W_E_3_2 215834154 215834190#1 244869371#0 244869371#1 30307284#2 30307284#3 30307284#4" color="blue" />
    <route id="S_N_1" edges="E2 E3 225589910#2 225589910#3 225589910#4" color="blue" />
    <route id="S_N_1_2" edges="E2 E3 971472783#1 971472770 5066149 E7" color="blue" />
    <route id="S_N_1_3" edges="E2 E3 971472783#1 971472770 5066149 215834150 215834183 212271963#1 740504606 462383650" color="blue" />
    <route id="S_N_1_4" edges="E2 E3 971472783#1 971472770 5066149 215834150 215834183 215834187#0 215834159 32299296 E_W_3_2_3 178456429#0 889092618#2-AddedOnRampEdge 889092618#2" color="blue" />
    <route id="S_N_1_5" edges="E2 E3 971472783#1 971472770 5066149 215834150 215834183 215834187#0 215834159 32299296 E_W_3_2_3 739661099 740524787#2 24862060#0 230054301" color="blue" />
    <route id="S_N_3_4" edges="231949487.4 215834211#0 215834159 32299296 E_W_3_2_3 178456429#0 889092618#2-AddedOnRampEdge 889092618#2" color="blue" />
    <route id="S_N_3_5" edges="231949487.4 215834211#0 215834159 32299296 E_W_3_2_3 739661099 740524787#2 24862060#0 230054301" color="blue" />
    <route id="S_N_5" edges="172824408 172824408-AddedOffRampEdge 503584906#0 180166262#0 230054301" color="blue" />
    <route id="S_N_5_3" edges="172824408 172824408-AddedOffRampEdge 172824413#0 172824413#0.66 740504608 740504607 215834156#0 889092620#0 215834149 1092819225 32299300 740504605#1 740504606 462383650" color="blue" />
    <route id="S_N_5_4" edges="172824408 172824408-AddedOffRampEdge 172824413#0 172824413#0.66 740504608 740504607 215834156#0 889092618#1 889092618#2-AddedOnRampEdge 889092618#2" color="blue" />
    <route id="S_S_1_4" edges="E_W_2 971472783#1 971472770 5066149 215834150 215834183 215834187#0 215834159 280702848 740524789" color="blue" />
    <route id="S_S_3_6" edges="231949487.4 215834211#0 215834159 32299296 E_W_3_2_3 739661099 740524787#2 198505048#1 5066150 321331231 215840480" color="blue" />
    <route id="S_W_3_6" edges="231949487.4 215834211#0 215834159 32299296 E_W_3_2_3 739661099 740524787#2 198505048#1 5066150 685510796#1 685510793#0" color="blue" />
    <route id="S_W_5_6" edges="172824408 172824408-AddedOffRampEdge 503584906#0 5066150 685510796#1 685510793#0" color="blue" />
    <route id="W_E_6_1" edges="685510783#0 139252069 1279598614#1 740504608 740504607 215834156#0 889092620#0 215834149 1092819225 32299300 740504604#2 215834169 W_E_3_2 215834154 215834190#1 244869371#0 244869371#1 30307284#2 30307284#3 30307284#4" color="magenta" />
    <route id="W_N_6_1" edges="685510783#0 139252069 1279598614#1 740504608 740504607 215834156#0 889092620#0 215834149 1092819225 32299300 740504604#2 215834169 W_E_3_2 215834154 215834190#1 244869371#0 244869371#1 225589910#2 225589910#3 225589910#4" color="magenta" />
    <route id="W_N_6_2" edges="685510783#0 139252069 1279598614#1 740504608 740504607 215834156#0 889092620#0 215834149 1092819225 32299300 740504604#2 215834169 W_E_3_2 215834154 E7" color="magenta" />
    <route id="W_N_6_3" edges="685510783#0 139252069 1279598614#1 740504608 740504607 215834156#0 889092620#0 215834149 1092819225 32299300 740504605#1 740504606 462383650" color="magenta" />
    <route id="W_N_6_4" edges="685510783#0 139252069 1279598614#1 740504608 740504607 215834156#0 889092618#1 889092618#2-AddedOnRampEdge 889092618#2" color="magenta" />
    <route id="W_N_6_5" edges="685510783#0 139252069 180166262#0 230054301" color="magenta" />
    <route id="W_S_6" edges="685510783#0 321331231 215840480" color="magenta" />
    <route id="W_S_6_1" edges="685510783#0 139252069 1279598614#1 740504608 740504607 215834156#0 889092620#0 215834149 1092819225 32299300 740504604#2 215834169 W_E_3_2 215834154 215834190#1 244869371#0 225589914#0 E1" color="magenta" />
    <route id="W_S_6_4" edges="685510783#0 139252069 1279598614#1 740504608 740504607 215834156#0 889092620#0 30824395#0" color="magenta" />
<flow id="f_0" begin="0.00" route="E_N_1" end="3600" probability="0.7914524423893783" departSpeed="random" departPos="random" departLane="random" /><!--
--><flow id="f_1" begin="0.00" route="E_N_1_2" end="3600" probability="0.22834066742833478" departSpeed="random" departPos="random" departLane="random" /><!--
--><flow id="f_2" begin="0.00" route="E_N_1_3" end="3600" probability="0.6388896599606801" departSpeed="random" departPos="random" departLane="random" /><!--
--><flow id="f_3" begin="0.00" route="E_N_1_4" end="3600" probability="0.35989616496438515" departSpeed="random" departPos="random" departLane="random" /><!--
--><flow id="f_4" begin="0.00" route="E_N_1_5" end="3600" probability="0.5113155291457996" departSpeed="random" departPos="random" departLane="random" /><!--
--><flow id="f_5" begin="0.00" route="E_S_1_4" end="3600" probability="0.2809495352125775" departSpeed="random" departPos="random" departLane="random" /><!--
--><flow id="f_6" begin="0.00" route="E_S_1_6" end="3600" probability="0.499233345636127" departSpeed="random" departPos="random" departLane="random" /><!--
--><flow id="f_7" begin="0.00" route="N_E_2_1" end="3600" probability="0.10079186335806085" departSpeed="random" departPos="random" departLane="random" /><!--
--><flow id="f_8" begin="0.00" route="N_E_4_1" end="3600" probability="0.15804916010439263" departSpeed="random" departPos="random" departLane="random" /><!--
--><flow id="f_9" begin="0.00" route="N_N_2_1" end="3600" probability="0.26372226102308405" departSpeed="random" departPos="random" departLane="random" /><!--
--><flow id="f_10" begin="0.00" route="N_N_2_3" end="3600" probability="0.42355220856293985" departSpeed="random" departPos="random" departLane="random" /><!--
--><flow id="f_11" begin="0.00" route="N_N_3_4" end="3600" probability="0.1657077742659614" departSpeed="random" departPos="random" departLane="random" /><!--
--><flow id="f_12" begin="0.00" route="N_N_4_1" end="3600" probability="0.23383165993559976" departSpeed="random" departPos="random" departLane="random" /><!--
--><flow id="f_13" begin="0.00" route="N_N_4_5" end="3600" probability="0.4904734096358544" departSpeed="random" departPos="random" departLane="random" /><!--
--><flow id="f_14" begin="0.00" route="N_N_6_1" end="3600" probability="0.2042544868467518" departSpeed="random" departPos="random" departLane="random" /><!--
--><flow id="f_15" begin="0.00" route="N_N_6_2" end="3600" probability="0.2033141572555989" departSpeed="random" departPos="random" departLane="random" /><!--
--><flow id="f_16" begin="0.00" route="N_N_6_3" end="3600" probability="0.24057504121427994" departSpeed="random" departPos="random" departLane="random" /><!--
--><flow id="f_17" begin="0.00" route="N_N_6_4" end="3600" probability="0.8281001229284601" departSpeed="random" departPos="random" departLane="random" /><!--
--><flow id="f_18" begin="0.00" route="N_N_6_5" end="3600" probability="0.8503348845501731" departSpeed="random" departPos="random" departLane="random" /><!--
--><flow id="f_19" begin="0.00" route="N_S_1" end="3600" probability="0.7675221487910843" departSpeed="random" departPos="random" departLane="random" /><!--
--><flow id="f_20" begin="0.00" route="N_S_1_3" end="3600" probability="0.5916754536644547" departSpeed="random" departPos="random" departLane="random" /><!--
--><flow id="f_21" begin="0.00" route="N_S_1_6" end="3600" probability="0.5980276816924619" departSpeed="random" departPos="random" departLane="random" /><!--
--><flow id="f_22" begin="0.00" route="N_S_2_1" end="3600" probability="0.4017430059408844" departSpeed="random" departPos="random" departLane="random" /><!--
--><flow id="f_23" begin="0.00" route="N_S_2_4" end="3600" probability="0.6010196017003595" departSpeed="random" departPos="random" departLane="random" /><!--
--><flow id="f_24" begin="0.00" route="N_S_4" end="3600" probability="0.41717993176359736" departSpeed="random" departPos="random" departLane="random" /><!--
--><flow id="f_25" begin="0.00" route="N_S_4_1" end="3600" probability="0.6368409963395524" departSpeed="random" departPos="random" departLane="random" /><!--
--><flow id="f_26" begin="0.00" route="N_S_4_6" end="3600" probability="0.6073957707491806" departSpeed="random" departPos="random" departLane="random" /><!--
--><flow id="f_27" begin="0.00" route="N_S_6" end="3600" probability="0.7870567301886296" departSpeed="random" departPos="random" departLane="random" /><!--
--><flow id="f_28" begin="0.00" route="N_S_6_1" end="3600" probability="0.7635913123463184" departSpeed="random" departPos="random" departLane="random" /><!--
--><flow id="f_29" begin="0.00" route="N_S_6_4" end="3600" probability="0.51899626956641" departSpeed="random" departPos="random" departLane="random" /><!--
--><flow id="f_30" begin="0.00" route="N_W_6" end="3600" probability="0.8421276177435622" departSpeed="random" departPos="random" departLane="random" /><!--
--><flow id="f_31" begin="0.00" route="S_E_1" end="3600" probability="0.7942452917943936" departSpeed="random" departPos="random" departLane="random" /><!--
--><flow id="f_32" begin="0.00" route="S_E_2_1" end="3600" probability="0.8441615957211296" departSpeed="random" departPos="random" departLane="random" /><!--
--><flow id="f_33" begin="0.00" route="S_E_5_1" end="3600" probability="0.48240470182884587" departSpeed="random" departPos="random" departLane="random" /><!--
--><flow id="f_34" begin="0.00" route="S_N_1" end="3600" probability="0.5331104855143332" departSpeed="random" departPos="random" departLane="random" /><!--
--><flow id="f_35" begin="0.00" route="S_N_1_2" end="3600" probability="0.1743784462531644" departSpeed="random" departPos="random" departLane="random" /><!--
--><flow id="f_36" begin="0.00" route="S_N_1_3" end="3600" probability="0.7118352354992643" departSpeed="random" departPos="random" departLane="random" /><!--
--><flow id="f_37" begin="0.00" route="S_N_1_4" end="3600" probability="0.46364678446189156" departSpeed="random" departPos="random" departLane="random" /><!--
--><flow id="f_38" begin="0.00" route="S_N_1_5" end="3600" probability="0.5616883986691165" departSpeed="random" departPos="random" departLane="random" /><!--
--><flow id="f_39" begin="0.00" route="S_N_3_4" end="3600" probability="0.5390186477980016" departSpeed="random" departPos="random" departLane="random" /><!--
--><flow id="f_40" begin="0.00" route="S_N_3_5" end="3600" probability="0.47861580915111757" departSpeed="random" departPos="random" departLane="random" /><!--
--><flow id="f_41" begin="0.00" route="S_N_5" end="3600" probability="0.20577181512145704" departSpeed="random" departPos="random" departLane="random" /><!--
--><flow id="f_42" begin="0.00" route="S_N_5_3" end="3600" probability="0.4932768531950663" departSpeed="random" departPos="random" departLane="random" /><!--
--><flow id="f_43" begin="0.00" route="S_N_5_4" end="3600" probability="0.3691696256973169" departSpeed="random" departPos="random" departLane="random" /><!--
--><flow id="f_44" begin="0.00" route="S_S_1_4" end="3600" probability="0.8531339400527692" departSpeed="random" departPos="random" departLane="random" /><!--
--><flow id="f_45" begin="0.00" route="S_S_3_6" end="3600" probability="0.7652808386763013" departSpeed="random" departPos="random" departLane="random" /><!--
--><flow id="f_46" begin="0.00" route="S_W_3_6" end="3600" probability="0.20218538713319056" departSpeed="random" departPos="random" departLane="random" /><!--
--><flow id="f_47" begin="0.00" route="S_W_5_6" end="3600" probability="0.7391520677050293" departSpeed="random" departPos="random" departLane="random" /><!--
--><flow id="f_48" begin="0.00" route="W_E_6_1" end="3600" probability="0.4029940809933089" departSpeed="random" departPos="random" departLane="random" /><!--
--><flow id="f_49" begin="0.00" route="W_N_6_1" end="3600" probability="0.6603843216167264" departSpeed="random" departPos="random" departLane="random" /><!--
--><flow id="f_50" begin="0.00" route="W_N_6_2" end="3600" probability="0.3805595828978924" departSpeed="random" departPos="random" departLane="random" /><!--
--><flow id="f_51" begin="0.00" route="W_N_6_3" end="3600" probability="0.3771592550596108" departSpeed="random" departPos="random" departLane="random" /><!--
--><flow id="f_52" begin="0.00" route="W_N_6_4" end="3600" probability="0.5110060453239865" departSpeed="random" departPos="random" departLane="random" /><!--
--><flow id="f_53" begin="0.00" route="W_N_6_5" end="3600" probability="0.784515565379546" departSpeed="random" departPos="random" departLane="random" /><!--
--><flow id="f_54" begin="0.00" route="W_S_6" end="3600" probability="0.7768540859642032" departSpeed="random" departPos="random" departLane="random" /><!--
--><flow id="f_55" begin="0.00" route="W_S_6_1" end="3600" probability="0.1615554637979816" departSpeed="random" departPos="random" departLane="random" /><!--
--><flow id="f_56" begin="0.00" route="W_S_6_4" end="3600" probability="0.6790009771000889" departSpeed="random" departPos="random" departLane="random" /><!--
--></routes>