<routes xmlns:xsi="http://www.w3.org/2001/XMLSchema-instance" xsi:noNamespaceSchemaLocation="http://sumo.dlr.de/xsd/routes_file.xsd">
    
    <route id="E_N_1" edges="E_W_1 E4 225589910#3 225589910#4" color="red" />
    <route id="E_N_1_2" edges="E_W_1 E_W_2 971472783#1 971472770 5066149 E7" color="red" />
    <route id="E_N_1_3" edges="E_W_1 E_W_2 971472783#1 971472770 5066149 215834150 215834183 212271963#1 740504606 462383650" color="red" />
    <route id="E_N_1_4" edges="E_W_1 E_W_2 971472783#1 971472770 5066149 215834150 215834183 215834187#0 215834159 32299296 E_W_3_2_3 178456429#0 889092618#2-AddedOnRampEdge 889092618#2" color="red" />
    <route id="E_N_1_5" edges="E_W_1 E_W_2 971472783#1 971472770 5066149 215834150 215834183 215834187#0 215834159 32299296 E_W_3_2_3 739661099 740524787#2 24862060#0 230054301" color="red" />
    <route id="E_S_1_4" edges="E2 E3 971472783#1 971472770 5066149 215834150 215834183 215834187#0 215834159 280702848 740524789" color="blue" />
    <route id="E_S_1_6" edges="E_W_2 971472783#1 971472770 5066149 215834150 215834183 215834187#0 215834159 32299296 E_W_3_2_3 739661099 740524787#2 198505048#1 5066150 321331231 215840480" color="red" />
    <route id="N_E_2_1" edges="E5 E6 215834190#1 244869371#0 244869371#1 30307284#2 30307284#3 30307284#4" />
    <route id="N_E_4_1" edges="178456430#0 178456430#0-AddedOffRampEdge 178456430#1 889092620#0 215834149 1092819225 32299300 740504604#2 215834169 W_E_3_2 215834154 215834190#1 244869371#0 244869371#1 30307284#2 30307284#3 30307284#4" color="green" />
    <route id="N_N_2_1" edges="E5 E6 215834190#1 244869371#0 244869371#1 225589910#2 225589910#3 225589910#4" />
    <route id="N_N_2_3" edges="E5 33658264#0 215834183 212271963#1 740504606 462383650 741765612" color="green" />
    <route id="N_N_3_4" edges="178456430#0 178456430#0-AddedOffRampEdge 97803900#0 740524787#2 24862060#0 230054301" color="green" />
    <route id="N_N_4_1" edges="178456430#0 178456430#0-AddedOffRampEdge 178456430#1 889092620#0 215834149 1092819225 32299300 740504604#2 215834169 W_E_3_2 215834154 215834190#1 244869371#0 244869371#1 225589910#2 225589910#3 225589910#4" color="green" />
    <route id="N_N_4_5" edges="178456430#0 178456430#0-AddedOffRampEdge 97803900#0 740524787#2 24862060#0 230054301" color="green" />
    <route id="N_N_6_1" edges="973340103 413008146#0 413008146#1 1092819228#0 1092819228#1 139252069 1279598614#1 740504608 740504607 215834156#0 889092620#0 215834149 1092819225 32299300 740504604#2 215834169 W_E_3_2 215834154 215834190#1 244869371#0 244869371#1 225589910#2 225589910#3 225589910#4" color="green" />
    <route id="N_N_6_2" edges="973340103 413008146#0 413008146#1 1092819228#0 1092819228#1 139252069 1279598614#1 740504608 740504607 215834156#0 889092620#0 215834149 1092819225 32299300 740504604#2 215834169 W_E_3_2 215834154 E7" color="green" />
    <route id="N_N_6_3" edges="973340103 413008146#0 413008146#1 1092819228#0 1092819228#1 139252069 1279598614#1 740504608 740504607 215834156#0 889092620#0 215834149 1092819225 32299300 740504605#1 740504606 462383650" color="green" />
    <route id="N_N_6_4" edges="973340103 413008146#0 413008146#1 1092819228#0 1092819228#1 139252069 1279598614#1 740504608 740504607 215834156#0 889092618#1 889092618#2-AddedOnRampEdge 889092618#2" color="green" />
    <route id="N_N_6_5" edges="973340103 413008146#0 413008146#1 1092819228#0 1092819228#1 139252069 180166262#0 230054301" color="green" />
    <route id="N_S_1" edges="32293940#0 32293940#1 E0 E1" color="green" />
    <route id="N_S_1_3" edges="32293940#0 225589919#0 971472770 5066149 215834150 215834183 215834187#0 215834159 280702848 740524789" color="green" />
    <route id="N_S_1_6" edges="32293940#0 225589919#0 971472770 5066149 215834150 215834183 215834187#0 215834159 32299296 E_W_3_2_3 739661099 740524787#2 198505048#1 5066150 321331231 215840480" color="green" />
    <route id="N_S_2_1" edges="E5 E6 215834190#1 244869371#0 225589914#0 E1" />
    <route id="N_S_2_4" edges="E5 33658264#0 215834183 215834187#0 215834159 280702848 740524789" color="blue" />
    <route id="N_S_4" edges="178456430#0 178456430#0-AddedOffRampEdge 178456430#1 889092620#0 30824395#0" color="green" />
    <route id="N_S_4_1" edges="178456430#0 178456430#0-AddedOffRampEdge 178456430#1 889092620#0 215834149 1092819225 32299300 740504604#2 215834169 W_E_3_2 215834154 215834190#1 244869371#0 225589914#0 E1" color="green" />
    <route id="N_S_4_6" edges="178456430#0 178456430#0-AddedOffRampEdge 97803900#0 740524787#2 198505048#1 5066150 321331231 215840480" color="green" />
    <route id="N_S_6" edges="413008146#0 413008146#1 1092819228#0 1092819228#1 321331231 215840480" color="green" />
    <route id="N_S_6_1" edges="973340103 413008146#0 413008146#1 1092819228#0 1092819228#1 139252069 1279598614#1 740504608 740504607 215834156#0 889092620#0 215834149 1092819225 32299300 740504604#2 215834169 W_E_3_2 215834154 215834190#1 244869371#0 225589914#0 E1" color="green" />
    <route id="N_S_6_4" edges="973340103 413008146#0 413008146#1 1092819228#0 1092819228#1 139252069 1279598614#1 740504608 740504607 215834156#0 889092620#0 30824395#0" color="green" />
    <route id="N_W_6" edges="413008146#0 413008146#1 1092819228#0 E8 685510793#0" color="green" />
    <route id="S_E_1" edges="E2 225589921#0 30307284#3 30307284#4" color="blue" />
    <route id="S_E_2_1" edges="739569486#0.4 741765615 741765614 215834169 W_E_3_2 215834154 215834190#1 244869371#0 244869371#1 30307284#2 30307284#3 30307284#4" color="blue" />
    <route id="S_E_5_1" edges="172824408 172824408-AddedOffRampEdge 172824413#0 172824413#0.66 740504608 740504607 215834156#0 889092620#0 215834149 1092819225 32299300 740504604#2 215834169 W_E_3_2 215834154 215834190#1 244869371#0 244869371#1 30307284#2 30307284#3 30307284#4" color="blue" />
    <route id="S_N_1" edges="E2 E3 225589910#2 225589910#3 225589910#4" color="blue" />
    <route id="S_N_1_2" edges="E2 E3 971472783#1 971472770 5066149 E7" color="blue" />
    <route id="S_N_1_3" edges="E2 E3 971472783#1 971472770 5066149 215834150 215834183 212271963#1 740504606 462383650" color="blue" />
    <route id="S_N_1_4" edges="E2 E3 971472783#1 971472770 5066149 215834150 215834183 215834187#0 215834159 32299296 E_W_3_2_3 178456429#0 889092618#2-AddedOnRampEdge 889092618#2" color="blue" />
    <route id="S_N_1_5" edges="E2 E3 971472783#1 971472770 5066149 215834150 215834183 215834187#0 215834159 32299296 E_W_3_2_3 739661099 740524787#2 24862060#0 230054301" color="blue" />
    <route id="S_N_3_4" edges="231949487.4 215834211#0 215834159 32299296 E_W_3_2_3 178456429#0 889092618#2-AddedOnRampEdge 889092618#2" color="blue" />
    <route id="S_N_3_5" edges="231949487.4 215834211#0 215834159 32299296 E_W_3_2_3 739661099 740524787#2 24862060#0 230054301" color="blue" />
    <route id="S_N_5" edges="172824408 172824408-AddedOffRampEdge 503584906#0 180166262#0 230054301" color="blue" />
    <route id="S_N_5_3" edges="172824408 172824408-AddedOffRampEdge 172824413#0 172824413#0.66 740504608 740504607 215834156#0 889092620#0 215834149 1092819225 32299300 740504605#1 740504606 462383650" color="blue" />
    <route id="S_N_5_4" edges="172824408 172824408-AddedOffRampEdge 172824413#0 172824413#0.66 740504608 740504607 215834156#0 889092618#1 889092618#2-AddedOnRampEdge 889092618#2" color="blue" />
    <route id="S_S_1_4" edges="E_W_2 971472783#1 971472770 5066149 215834150 215834183 215834187#0 215834159 280702848 740524789" color="blue" />
    <route id="S_S_3_6" edges="231949487.4 215834211#0 215834159 32299296 E_W_3_2_3 739661099 740524787#2 198505048#1 5066150 321331231 215840480" color="blue" />
    <route id="S_W_3_6" edges="231949487.4 215834211#0 215834159 32299296 E_W_3_2_3 739661099 740524787#2 198505048#1 5066150 685510796#1 685510793#0" color="blue" />
    <route id="S_W_5_6" edges="172824408 172824408-AddedOffRampEdge 503584906#0 5066150 685510796#1 685510793#0" color="blue" />
    <route id="W_E_6_1" edges="685510783#0 139252069 1279598614#1 740504608 740504607 215834156#0 889092620#0 215834149 1092819225 32299300 740504604#2 215834169 W_E_3_2 215834154 215834190#1 244869371#0 244869371#1 30307284#2 30307284#3 30307284#4" color="magenta" />
    <route id="W_N_6_1" edges="685510783#0 139252069 1279598614#1 740504608 740504607 215834156#0 889092620#0 215834149 1092819225 32299300 740504604#2 215834169 W_E_3_2 215834154 215834190#1 244869371#0 244869371#1 225589910#2 225589910#3 225589910#4" color="magenta" />
    <route id="W_N_6_2" edges="685510783#0 139252069 1279598614#1 740504608 740504607 215834156#0 889092620#0 215834149 1092819225 32299300 740504604#2 215834169 W_E_3_2 215834154 E7" color="magenta" />
    <route id="W_N_6_3" edges="685510783#0 139252069 1279598614#1 740504608 740504607 215834156#0 889092620#0 215834149 1092819225 32299300 740504605#1 740504606 462383650" color="magenta" />
    <route id="W_N_6_4" edges="685510783#0 139252069 1279598614#1 740504608 740504607 215834156#0 889092618#1 889092618#2-AddedOnRampEdge 889092618#2" color="magenta" />
    <route id="W_N_6_5" edges="685510783#0 139252069 180166262#0 230054301" color="magenta" />
    <route id="W_S_6" edges="685510783#0 321331231 215840480" color="magenta" />
    <route id="W_S_6_1" edges="685510783#0 139252069 1279598614#1 740504608 740504607 215834156#0 889092620#0 215834149 1092819225 32299300 740504604#2 215834169 W_E_3_2 215834154 215834190#1 244869371#0 225589914#0 E1" color="magenta" />
    <route id="W_S_6_4" edges="685510783#0 139252069 1279598614#1 740504608 740504607 215834156#0 889092620#0 30824395#0" color="magenta" />
<flow id="f_0" begin="0.00" route="E_N_1" end="3600" probability="0.12079194402759885" departSpeed="random" departPos="random" departLane="random" /><!--
--><flow id="f_1" begin="0.00" route="E_N_1_2" end="3600" probability="0.2506093131017162" departSpeed="random" departPos="random" departLane="random" /><!--
--><flow id="f_2" begin="0.00" route="E_N_1_3" end="3600" probability="0.2616846208233353" departSpeed="random" departPos="random" departLane="random" /><!--
--><flow id="f_3" begin="0.00" route="E_N_1_4" end="3600" probability="0.24935904026441147" departSpeed="random" departPos="random" departLane="random" /><!--
--><flow id="f_4" begin="0.00" route="E_N_1_5" end="3600" probability="0.19591959822436286" departSpeed="random" departPos="random" departLane="random" /><!--
--><flow id="f_5" begin="0.00" route="E_S_1_4" end="3600" probability="0.12452699934772338" departSpeed="random" departPos="random" departLane="random" /><!--
--><flow id="f_6" begin="0.00" route="E_S_1_6" end="3600" probability="0.3567150888350391" departSpeed="random" departPos="random" departLane="random" /><!--
--><flow id="f_7" begin="0.00" route="N_E_2_1" end="3600" probability="0.3655543540267726" departSpeed="random" departPos="random" departLane="random" /><!--
--><flow id="f_8" begin="0.00" route="N_E_4_1" end="3600" probability="0.44028185276365617" departSpeed="random" departPos="random" departLane="random" /><!--
--><flow id="f_9" begin="0.00" route="N_N_2_1" end="3600" probability="0.22543820928824268" departSpeed="random" departPos="random" departLane="random" /><!--
--><flow id="f_10" begin="0.00" route="N_N_2_3" end="3600" probability="0.40203877202526384" departSpeed="random" departPos="random" departLane="random" /><!--
--><flow id="f_11" begin="0.00" route="N_N_3_4" end="3600" probability="0.35857535749121394" departSpeed="random" departPos="random" departLane="random" /><!--
--><flow id="f_12" begin="0.00" route="N_N_4_1" end="3600" probability="0.33214900674054915" departSpeed="random" departPos="random" departLane="random" /><!--
--><flow id="f_13" begin="0.00" route="N_N_4_5" end="3600" probability="0.3046020294693277" departSpeed="random" departPos="random" departLane="random" /><!--
--><flow id="f_14" begin="0.00" route="N_N_6_1" end="3600" probability="0.2514005769332147" departSpeed="random" departPos="random" departLane="random" /><!--
--><flow id="f_15" begin="0.00" route="N_N_6_2" end="3600" probability="0.32345475376097255" departSpeed="random" departPos="random" departLane="random" /><!--
--><flow id="f_16" begin="0.00" route="N_N_6_3" end="3600" probability="0.48071901914300397" departSpeed="random" departPos="random" departLane="random" /><!--
--><flow id="f_17" begin="0.00" route="N_N_6_4" end="3600" probability="0.12165941730288723" departSpeed="random" departPos="random" departLane="random" /><!--
--><flow id="f_18" begin="0.00" route="N_N_6_5" end="3600" probability="0.1265401884850313" departSpeed="random" departPos="random" departLane="random" /><!--
--><flow id="f_19" begin="0.00" route="N_S_1" end="3600" probability="0.4791970921017231" departSpeed="random" departPos="random" departLane="random" /><!--
--><flow id="f_20" begin="0.00" route="N_S_1_3" end="3600" probability="0.27680409014765994" departSpeed="random" departPos="random" departLane="random" /><!--
--><flow id="f_21" begin="0.00" route="N_S_1_6" end="3600" probability="0.2233616184181353" departSpeed="random" departPos="random" departLane="random" /><!--
--><flow id="f_22" begin="0.00" route="N_S_2_1" end="3600" probability="0.1841204614717941" departSpeed="random" departPos="random" departLane="random" /><!--
--><flow id="f_23" begin="0.00" route="N_S_2_4" end="3600" probability="0.4002888142043639" departSpeed="random" departPos="random" departLane="random" /><!--
--><flow id="f_24" begin="0.00" route="N_S_4" end="3600" probability="0.3595994812701796" departSpeed="random" departPos="random" departLane="random" /><!--
--><flow id="f_25" begin="0.00" route="N_S_4_1" end="3600" probability="0.3413570704180863" departSpeed="random" departPos="random" departLane="random" /><!--
--><flow id="f_26" begin="0.00" route="N_S_4_6" end="3600" probability="0.2973782323528644" departSpeed="random" departPos="random" departLane="random" /><!--
--><flow id="f_27" begin="0.00" route="N_S_6" end="3600" probability="0.40335043392162007" departSpeed="random" departPos="random" departLane="random" /><!--
--><flow id="f_28" begin="0.00" route="N_S_6_1" end="3600" probability="0.20601460911828676" departSpeed="random" departPos="random" departLane="random" /><!--
--><flow id="f_29" begin="0.00" route="N_S_6_4" end="3600" probability="0.18474538740277416" departSpeed="random" departPos="random" departLane="random" /><!--
--><flow id="f_30" begin="0.00" route="N_W_6" end="3600" probability="0.11198975684917714" departSpeed="random" departPos="random" departLane="random" /><!--
--><flow id="f_31" begin="0.00" route="S_E_1" end="3600" probability="0.2850940278337756" departSpeed="random" departPos="random" departLane="random" /><!--
--><flow id="f_32" begin="0.00" route="S_E_2_1" end="3600" probability="0.4747435769851721" departSpeed="random" departPos="random" departLane="random" /><!--
--><flow id="f_33" begin="0.00" route="S_E_5_1" end="3600" probability="0.18839785177916327" departSpeed="random" departPos="random" departLane="random" /><!--
--><flow id="f_34" begin="0.00" route="S_N_1" end="3600" probability="0.10343143524447962" departSpeed="random" departPos="random" departLane="random" /><!--
--><flow id="f_35" begin="0.00" route="S_N_1_2" end="3600" probability="0.37119733162222424" departSpeed="random" departPos="random" departLane="random" /><!--
--><flow id="f_36" begin="0.00" route="S_N_1_3" end="3600" probability="0.230212455376416" departSpeed="random" departPos="random" departLane="random" /><!--
--><flow id="f_37" begin="0.00" route="S_N_1_4" end="3600" probability="0.47342591340043216" departSpeed="random" departPos="random" departLane="random" /><!--
--><flow id="f_38" begin="0.00" route="S_N_1_5" end="3600" probability="0.1275623088660455" departSpeed="random" departPos="random" departLane="random" /><!--
--><flow id="f_39" begin="0.00" route="S_N_3_4" end="3600" probability="0.16024249614403982" departSpeed="random" departPos="random" departLane="random" /><!--
--><flow id="f_40" begin="0.00" route="S_N_3_5" end="3600" probability="0.26443571697583146" departSpeed="random" departPos="random" departLane="random" /><!--
--><flow id="f_41" begin="0.00" route="S_N_5" end="3600" probability="0.23436401249251726" departSpeed="random" departPos="random" departLane="random" /><!--
--><flow id="f_42" begin="0.00" route="S_N_5_3" end="3600" probability="0.31294976351333204" departSpeed="random" departPos="random" departLane="random" /><!--
--><flow id="f_43" begin="0.00" route="S_N_5_4" end="3600" probability="0.21909650220642085" departSpeed="random" departPos="random" departLane="random" /><!--
--><flow id="f_44" begin="0.00" route="S_S_1_4" end="3600" probability="0.1430389804069513" departSpeed="random" departPos="random" departLane="random" /><!--
--><flow id="f_45" begin="0.00" route="S_S_3_6" end="3600" probability="0.36325219553479837" departSpeed="random" departPos="random" departLane="random" /><!--
--><flow id="f_46" begin="0.00" route="S_W_3_6" end="3600" probability="0.1392812312997002" departSpeed="random" departPos="random" departLane="random" /><!--
--><flow id="f_47" begin="0.00" route="S_W_5_6" end="3600" probability="0.49208782534593554" departSpeed="random" departPos="random" departLane="random" /><!--
--><flow id="f_48" begin="0.00" route="W_E_6_1" end="3600" probability="0.27141962511898804" departSpeed="random" departPos="random" departLane="random" /><!--
--><flow id="f_49" begin="0.00" route="W_N_6_1" end="3600" probability="0.10435240181838396" departSpeed="random" departPos="random" departLane="random" /><!--
--><flow id="f_50" begin="0.00" route="W_N_6_2" end="3600" probability="0.3129468063383777" departSpeed="random" departPos="random" departLane="random" /><!--
--><flow id="f_51" begin="0.00" route="W_N_6_3" end="3600" probability="0.2591720733281897" departSpeed="random" departPos="random" departLane="random" /><!--
--><flow id="f_52" begin="0.00" route="W_N_6_4" end="3600" probability="0.21091637909087824" departSpeed="random" departPos="random" departLane="random" /><!--
--><flow id="f_53" begin="0.00" route="W_N_6_5" end="3600" probability="0.48450699495446314" departSpeed="random" departPos="random" departLane="random" /><!--
--><flow id="f_54" begin="0.00" route="W_S_6" end="3600" probability="0.3176123266248032" departSpeed="random" departPos="random" departLane="random" /><!--
--><flow id="f_55" begin="0.00" route="W_S_6_1" end="3600" probability="0.11160155405490212" departSpeed="random" departPos="random" departLane="random" /><!--
--><flow id="f_56" begin="0.00" route="W_S_6_4" end="3600" probability="0.34053794226813255" departSpeed="random" departPos="random" departLane="random" /><!--
--></routes>