<?xml version="1.0" encoding="UTF-8"?>

<!-- generated on 2024-07-17 23:42:50 by Eclipse SUMO sumo Version 1.20.0
-->

<configuration xmlns:xsi="http://www.w3.org/2001/XMLSchema-instance" xsi:noNamespaceSchemaLocation="http://sumo.dlr.de/xsd/sumoConfiguration.xsd">

    <input>
        <net-file value="intersection_4.net.xml"/>
        <route-files value="routes_4_hour/intersection_4_07_08_.rou.xml"/>
    </input>

</configuration>
