<?xml version="1.0" encoding="UTF-8"?>

<!-- generated on 2024-07-29 10:16:12 by Eclipse SUMO netedit Version 1.20.0
<configuration xmlns:xsi="http://www.w3.org/2001/XMLSchema-instance" xsi:noNamespaceSchemaLocation="http://sumo.dlr.de/xsd/neteditConfiguration.xsd">

    <input>
        <sumo-net-file value="/Users/eviat/Desktop/Final_Project/Traffic_Tune_Project/Nets/intersection_4/intersection_4.net.xml"/>
    </input>

    <output>
        <output-file value="/Users/eviat/Desktop/Final_Project/Traffic_Tune_Project/Nets/intersection_4/intersection_4.net.xml"/>
        <output.street-names value="true"/>
    </output>

    <processing>
        <geometry.min-radius.fix.railways value="false"/>
        <geometry.max-grade.fix value="false"/>
        <offset.disable-normalization value="true"/>
        <lefthand value="0"/>
    </processing>

    <junctions>
        <no-turnarounds value="true"/>
        <junctions.corner-detail value="5"/>
        <junctions.limit-turn-speed value="5.50"/>
        <rectangular-lane-cut value="0"/>
    </junctions>

    <pedestrian>
        <walkingareas value="0"/>
    </pedestrian>

</configuration>
-->

<net version="1.20" junctionCornerDetail="5" limitTurnSpeed="5.50" xmlns:xsi="http://www.w3.org/2001/XMLSchema-instance" xsi:noNamespaceSchemaLocation="http://sumo.dlr.de/xsd/net_file.xsd">

    <location netOffset="-3875201.03,-3784120.92" convBoundary="102.39,146.72,670.13,578.19" origBoundary="34.811523,32.158399,34.817610,32.163144" projParameter="+proj=merc +a=6378137 +b=6378137 +lat_ts=0.0 +lon_0=0.0 +x_0=0.0 +y_0=0 +k=1.0 +units=m +nadgrids=@null +wktext +no_defs"/>

    <type id="highway.motorway_link" priority="9" numLanes="1" speed="22.22" allow="private emergency authority army vip passenger hov taxi bus coach delivery truck trailer motorcycle evehicle custom1 custom2" oneway="1"/>
    <type id="highway.primary" priority="12" numLanes="2" speed="27.78" disallow="tram rail_urban rail rail_electric rail_fast ship" oneway="0"/>
    <type id="highway.primary_link" priority="7" numLanes="1" speed="22.22" disallow="tram rail_urban rail rail_electric rail_fast ship" oneway="0"/>
    <type id="highway.tertiary" priority="10" numLanes="1" speed="22.22" disallow="tram rail_urban rail rail_electric rail_fast ship" oneway="0"/>

    <edge id=":1537093185_0" function="internal">
        <lane id=":1537093185_0_0" index="0" allow="private emergency authority army vip passenger hov taxi bus coach delivery truck trailer motorcycle evehicle custom1 custom2" speed="25.00" length="3.33" shape="380.16,254.28 381.14,254.40 381.82,254.45 382.49,254.43 383.48,254.36"/>
        <lane id=":1537093185_0_1" index="1" allow="private emergency authority army vip passenger hov taxi bus coach delivery truck trailer motorcycle evehicle custom1 custom2" speed="25.00" length="4.00" shape="379.74,257.45 380.92,257.60 381.73,257.66 382.55,257.64 383.73,257.55"/>
    </edge>
    <edge id=":1537093185_2" function="internal">
        <lane id=":1537093185_2_0" index="0" disallow="tram rail_urban rail rail_electric rail_fast ship" speed="20.84" length="4.11" shape="379.32,260.62 383.37,261.13"/>
        <lane id=":1537093185_2_1" index="1" disallow="tram rail_urban rail rail_electric rail_fast ship" speed="20.84" length="4.11" shape="378.91,263.79 383.01,264.31"/>
    </edge>
    <edge id=":178456430#0-AddedOffRampNode_0" function="internal">
        <lane id=":178456430#0-AddedOffRampNode_0_0" index="0" disallow="tram rail_urban rail rail_electric rail_fast ship" speed="22.22" length="8.91" shape="349.16,432.82 347.26,430.68 344.73,430.27 342.20,429.86 340.28,427.73"/>
        <lane id=":178456430#0-AddedOffRampNode_0_1" index="1" disallow="tram rail_urban rail rail_electric rail_fast ship" speed="22.22" length="8.91" shape="349.16,432.82 347.80,430.71 346.22,429.68 344.62,428.65 343.25,426.55"/>
        <lane id=":178456430#0-AddedOffRampNode_0_2" index="2" disallow="tram rail_urban rail rail_electric rail_fast ship" speed="22.22" length="8.91" shape="349.16,432.82 346.23,425.37"/>
        <lane id=":178456430#0-AddedOffRampNode_0_3" index="3" disallow="tram rail_urban rail rail_electric rail_fast ship" speed="22.22" length="8.91" shape="352.14,431.63 349.20,424.20"/>
    </edge>
    <edge id=":1888071033_0" function="internal">
        <lane id=":1888071033_0_0" index="0" disallow="tram rail_urban rail rail_electric rail_fast ship" speed="22.22" length="3.29" shape="313.47,335.77 312.82,332.60"/>
        <lane id=":1888071033_0_1" index="1" disallow="tram rail_urban rail rail_electric rail_fast ship" speed="22.22" length="3.29" shape="316.61,335.18 315.94,331.90"/>
    </edge>
    <edge id=":1888071033_2" function="internal">
        <lane id=":1888071033_2_0" index="0" disallow="tram rail_urban rail rail_electric rail_fast ship" speed="22.22" length="3.26" shape="319.76,334.58 319.27,331.22"/>
        <lane id=":1888071033_2_1" index="1" disallow="tram rail_urban rail rail_electric rail_fast ship" speed="22.22" length="3.26" shape="322.90,333.99 322.45,330.89"/>
    </edge>
    <edge id=":2252682304_0" function="internal">
        <lane id=":2252682304_0_0" index="0" disallow="tram rail_urban rail rail_electric rail_fast ship" speed="27.78" length="0.34" shape="251.91,237.58 252.36,237.63"/>
        <lane id=":2252682304_0_1" index="1" disallow="tram rail_urban rail rail_electric rail_fast ship" speed="27.78" length="0.34" shape="251.52,240.75 251.92,240.80"/>
        <lane id=":2252682304_0_2" index="2" disallow="tram rail_urban rail rail_electric rail_fast ship" speed="27.78" length="0.34" shape="251.14,243.93 251.48,243.97"/>
        <lane id=":2252682304_0_3" index="3" disallow="tram rail_urban rail rail_electric rail_fast ship" speed="27.78" length="0.34" shape="250.76,247.11 251.04,247.14"/>
        <lane id=":2252682304_0_4" index="4" disallow="tram rail_urban rail rail_electric rail_fast ship" speed="27.78" length="0.34" shape="250.38,250.28 250.60,250.31"/>
    </edge>
    <edge id=":2847672357_0" function="internal">
        <lane id=":2847672357_0_0" index="0" disallow="tram rail_urban rail rail_electric rail_fast ship" speed="27.78" length="8.08" shape="462.98,295.03 460.67,294.90 459.07,295.20 457.46,295.55 455.14,295.52"/>
        <lane id=":2847672357_0_1" index="1" disallow="tram rail_urban rail rail_electric rail_fast ship" speed="27.78" length="8.08" shape="462.98,295.03 460.72,294.40 459.26,293.62 457.79,292.87 455.51,292.34"/>
        <lane id=":2847672357_0_2" index="2" disallow="tram rail_urban rail rail_electric rail_fast ship" speed="27.78" length="8.08" shape="463.51,291.87 461.20,291.23 459.71,290.45 458.22,289.70 455.89,289.16"/>
        <lane id=":2847672357_0_3" index="3" disallow="tram rail_urban rail rail_electric rail_fast ship" speed="27.78" length="8.08" shape="464.04,288.72 461.69,288.07 460.17,287.28 458.64,286.52 456.27,285.99"/>
    </edge>
    <edge id=":3273365394_0" function="internal">
        <lane id=":3273365394_0_0" index="0" disallow="tram rail_urban rail rail_electric rail_fast ship" speed="27.78" length="1.67" shape="187.34,268.55 187.22,266.93"/>
        <lane id=":3273365394_0_1" index="1" disallow="tram rail_urban rail rail_electric rail_fast ship" speed="27.78" length="1.67" shape="187.71,265.37 187.53,263.74"/>
        <lane id=":3273365394_0_2" index="2" disallow="tram rail_urban rail rail_electric rail_fast ship" speed="27.78" length="1.67" shape="188.07,262.20 187.83,260.56"/>
        <lane id=":3273365394_0_3" index="3" disallow="tram rail_urban rail rail_electric rail_fast ship" speed="27.78" length="1.67" shape="188.44,259.02 188.14,257.37"/>
        <lane id=":3273365394_0_4" index="4" disallow="tram rail_urban rail rail_electric rail_fast ship" speed="27.78" length="1.67" shape="188.81,255.84 188.44,254.19"/>
        <lane id=":3273365394_0_5" index="5" disallow="tram rail_urban rail rail_electric rail_fast ship" speed="27.78" length="1.67" shape="189.18,252.66 188.75,251.00"/>
    </edge>
    <edge id=":34136698_0" function="internal">
        <lane id=":34136698_0_0" index="0" disallow="tram rail_urban rail rail_electric rail_fast ship" speed="20.84" length="0.25" shape="610.58,298.15 610.87,298.21"/>
        <lane id=":34136698_0_1" index="1" disallow="tram rail_urban rail rail_electric rail_fast ship" speed="20.84" length="0.25" shape="609.96,301.28 610.15,301.33"/>
    </edge>
    <edge id=":363466018_0" function="internal">
        <lane id=":363466018_0_0" index="0" allow="private emergency authority army vip passenger hov taxi bus coach delivery truck trailer motorcycle evehicle custom1 custom2" speed="16.66" length="2.66" shape="615.95,328.34 613.35,327.76"/>
    </edge>
    <edge id=":363466018_1" function="internal">
        <lane id=":363466018_1_0" index="0" disallow="tram rail_urban rail rail_electric rail_fast ship" speed="23.61" length="2.99" shape="616.73,325.24 613.98,324.58"/>
        <lane id=":363466018_1_1" index="1" disallow="tram rail_urban rail rail_electric rail_fast ship" speed="23.61" length="2.99" shape="617.51,322.13 614.60,321.44"/>
        <lane id=":363466018_1_2" index="2" disallow="tram rail_urban rail rail_electric rail_fast ship" speed="23.61" length="2.99" shape="618.29,319.03 615.22,318.30"/>
    </edge>
    <edge id=":5020680581_0" function="internal">
        <lane id=":5020680581_0_0" index="0" disallow="tram rail_urban rail rail_electric rail_fast ship" speed="25.00" length="3.07" shape="379.40,286.50 376.34,286.20"/>
    </edge>
    <edge id=":5020680581_1" function="internal">
        <lane id=":5020680581_1_0" index="0" disallow="tram rail_urban rail rail_electric rail_fast ship" speed="27.78" length="2.61" shape="379.78,283.32 377.13,282.96"/>
        <lane id=":5020680581_1_1" index="1" disallow="tram rail_urban rail rail_electric rail_fast ship" speed="27.78" length="2.61" shape="380.16,280.14 377.57,279.79"/>
        <lane id=":5020680581_1_2" index="2" disallow="tram rail_urban rail rail_electric rail_fast ship" speed="27.78" length="2.61" shape="380.54,276.96 378.01,276.62"/>
    </edge>
    <edge id=":5020680597_0" function="internal">
        <lane id=":5020680597_0_0" index="0" allow="private emergency authority army vip passenger hov taxi bus coach delivery truck trailer motorcycle evehicle custom1 custom2" speed="13.89" length="0.40" shape="423.41,304.36 423.35,304.36 423.30,304.37 423.26,304.38 423.21,304.39"/>
        <lane id=":5020680597_0_1" index="1" allow="private emergency authority army vip passenger hov taxi bus coach delivery truck trailer motorcycle evehicle custom1 custom2" speed="13.89" length="0.40" shape="423.16,301.17 422.98,301.18 422.86,301.20 422.73,301.22 422.56,301.25"/>
    </edge>
    <edge id=":5020680599_0" function="internal">
        <lane id=":5020680599_0_0" index="0" allow="private emergency authority army vip passenger hov taxi bus coach delivery truck trailer motorcycle evehicle custom1 custom2" speed="22.22" length="0.76" shape="405.21,249.89 405.31,249.84 405.38,249.80 405.44,249.76 405.53,249.69"/>
        <lane id=":5020680599_0_1" index="1" allow="private emergency authority army vip passenger hov taxi bus coach delivery truck trailer motorcycle evehicle custom1 custom2" speed="22.22" length="0.76" shape="406.58,252.78 406.88,252.63 407.09,252.52 407.28,252.39 407.54,252.18"/>
    </edge>
    <edge id=":6928860400_0" function="internal">
        <lane id=":6928860400_0_0" index="0" allow="private emergency authority army vip passenger hov taxi bus coach delivery truck trailer motorcycle evehicle custom1 custom2" speed="13.89" length="7.73" shape="501.08,305.57 498.85,305.39 497.31,305.68 495.75,306.04 493.50,306.07"/>
        <lane id=":6928860400_0_1" index="1" allow="private emergency authority army vip passenger hov taxi bus coach delivery truck trailer motorcycle evehicle custom1 custom2" speed="13.89" length="7.73" shape="501.08,305.57 498.88,304.88 497.46,304.09 496.03,303.36 493.80,302.89"/>
    </edge>
    <edge id=":6932897455_0" function="internal">
        <lane id=":6932897455_0_0" index="0" disallow="tram rail_urban rail rail_electric rail_fast ship" speed="27.78" length="8.00" shape="194.61,230.53 202.41,231.62"/>
        <lane id=":6932897455_0_1" index="1" disallow="tram rail_urban rail rail_electric rail_fast ship" speed="27.78" length="8.00" shape="194.17,233.70 202.03,234.79"/>
        <lane id=":6932897455_0_2" index="2" disallow="tram rail_urban rail rail_electric rail_fast ship" speed="27.78" length="8.00" shape="193.73,236.87 201.65,237.97"/>
        <lane id=":6932897455_0_3" index="3" disallow="tram rail_urban rail rail_electric rail_fast ship" speed="27.78" length="8.00" shape="193.29,240.04 201.27,241.15"/>
        <lane id=":6932897455_0_4" index="4" disallow="tram rail_urban rail rail_electric rail_fast ship" speed="27.78" length="8.00" shape="192.84,243.21 200.88,244.33"/>
    </edge>
    <edge id=":889092618#2-AddedOnRampNode_0" function="internal">
        <lane id=":889092618#2-AddedOnRampNode_0_0" index="0" disallow="tram rail_urban rail rail_electric rail_fast ship" speed="22.22" length="8.00" shape="379.02,461.12 382.72,468.21"/>
        <lane id=":889092618#2-AddedOnRampNode_0_1" index="1" disallow="tram rail_urban rail rail_electric rail_fast ship" speed="22.22" length="8.00" shape="376.18,462.61 379.89,469.70"/>
    </edge>
    <edge id=":8998612808_0" function="internal">
        <lane id=":8998612808_0_0" index="0" disallow="tram rail_urban rail rail_electric rail_fast ship" speed="19.29" length="3.49" shape="341.28,322.77 341.14,323.79 341.09,324.50 341.15,325.21 341.31,326.23"/>
    </edge>
    <edge id=":8998612808_1" function="internal">
        <lane id=":8998612808_1_0" index="0" disallow="tram rail_urban rail rail_electric rail_fast ship" speed="22.22" length="8.62" shape="336.78,318.28 338.15,326.75"/>
        <lane id=":8998612808_1_1" index="1" disallow="tram rail_urban rail rail_electric rail_fast ship" speed="22.22" length="8.62" shape="333.61,318.73 334.99,327.28"/>
    </edge>
    <edge id=":cluster1132145011_cluster8595001343_cluster_1132144849_1888071112_316566761_8595001344_#3more_0" function="internal">
        <lane id=":cluster1132145011_cluster8595001343_cluster_1132144849_1888071112_316566761_8595001344_#3more_0_0" index="0" disallow="tram rail_urban rail rail_electric rail_fast ship" speed="13.62" length="50.34" shape="314.87,288.99 314.50,273.85 317.69,262.91 325.59,256.73 339.34,255.87"/>
        <lane id=":cluster1132145011_cluster8595001343_cluster_1132144849_1888071112_316566761_8595001344_#3more_0_1" index="1" disallow="tram rail_urban rail rail_electric rail_fast ship" speed="12.79" length="44.21" shape="318.04,288.54 317.62,275.18 320.24,265.43 326.99,259.87 338.97,259.05"/>
    </edge>
    <edge id=":cluster1132145011_cluster8595001343_cluster_1132144849_1888071112_316566761_8595001344_#3more_2" function="internal">
        <lane id=":cluster1132145011_cluster8595001343_cluster_1132144849_1888071112_316566761_8595001344_#3more_2_0" index="0" disallow="tram rail_urban rail rail_electric rail_fast ship" speed="27.78" length="56.31" shape="336.85,277.32 325.69,277.21 313.51,278.75 298.84,280.06 280.19,279.29"/>
        <lane id=":cluster1132145011_cluster8595001343_cluster_1132144849_1888071112_316566761_8595001344_#3more_2_1" index="1" disallow="tram rail_urban rail rail_electric rail_fast ship" speed="27.78" length="56.31" shape="336.85,277.32 325.72,276.71 313.62,277.15 299.06,277.37 280.56,276.11"/>
        <lane id=":cluster1132145011_cluster8595001343_cluster_1132144849_1888071112_316566761_8595001344_#3more_2_2" index="2" disallow="tram rail_urban rail rail_electric rail_fast ship" speed="27.78" length="56.31" shape="337.22,274.14 326.09,273.53 313.99,273.97 299.43,274.19 280.93,272.93"/>
        <lane id=":cluster1132145011_cluster8595001343_cluster_1132144849_1888071112_316566761_8595001344_#3more_2_3" index="3" disallow="tram rail_urban rail rail_electric rail_fast ship" speed="27.78" length="56.31" shape="337.22,274.14 281.29,269.75"/>
        <lane id=":cluster1132145011_cluster8595001343_cluster_1132144849_1888071112_316566761_8595001344_#3more_2_4" index="4" disallow="tram rail_urban rail rail_electric rail_fast ship" speed="27.78" length="56.31" shape="337.59,270.96 281.66,266.57"/>
        <lane id=":cluster1132145011_cluster8595001343_cluster_1132144849_1888071112_316566761_8595001344_#3more_2_5" index="5" disallow="tram rail_urban rail rail_electric rail_fast ship" speed="27.78" length="56.31" shape="337.59,270.96 282.03,263.39"/>
    </edge>
    <edge id=":cluster1132145011_cluster8595001343_cluster_1132144849_1888071112_316566761_8595001344_#3more_8" function="internal">
        <lane id=":cluster1132145011_cluster8595001343_cluster_1132144849_1888071112_316566761_8595001344_#3more_8_0" index="0" disallow="tram rail_urban rail rail_electric rail_fast ship" speed="27.78" length="56.08" shape="284.49,242.08 340.08,249.51"/>
        <lane id=":cluster1132145011_cluster8595001343_cluster_1132144849_1888071112_316566761_8595001344_#3more_8_1" index="1" disallow="tram rail_urban rail rail_electric rail_fast ship" speed="27.78" length="56.08" shape="284.12,245.26 339.71,252.69"/>
        <lane id=":cluster1132145011_cluster8595001343_cluster_1132144849_1888071112_316566761_8595001344_#3more_8_2" index="2" disallow="tram rail_urban rail rail_electric rail_fast ship" speed="27.78" length="56.08" shape="283.76,248.44 339.34,255.87"/>
    </edge>
    <edge id=":cluster1132145011_cluster8595001343_cluster_1132144849_1888071112_316566761_8595001344_#3more_11" function="internal">
        <lane id=":cluster1132145011_cluster8595001343_cluster_1132144849_1888071112_316566761_8595001344_#3more_11_0" index="0" disallow="tram rail_urban rail rail_electric rail_fast ship" speed="18.69" length="64.56" shape="283.39,251.62 303.24,256.13 317.99,263.45 327.67,273.57 332.25,286.51"/>
        <lane id=":cluster1132145011_cluster8595001343_cluster_1132144849_1888071112_316566761_8595001344_#3more_11_1" index="1" disallow="tram rail_urban rail rail_electric rail_fast ship" speed="18.07" length="60.35" shape="283.02,254.80 301.77,259.01 315.70,265.77 324.80,275.09 329.09,286.97"/>
    </edge>
    <edge id=":cluster1132145011_cluster8595001343_cluster_1132144849_1888071112_316566761_8595001344_#3more_13" function="internal">
        <lane id=":cluster1132145011_cluster8595001343_cluster_1132144849_1888071112_316566761_8595001344_#3more_13_0" index="0" disallow="tram rail_urban rail rail_electric rail_fast ship" speed="12.74" length="16.19" shape="293.11,288.31 290.05,284.66 286.88,281.94 283.59,280.15 280.19,279.29"/>
        <lane id=":cluster1132145011_cluster8595001343_cluster_1132144849_1888071112_316566761_8595001344_#3more_13_1" index="1" disallow="tram rail_urban rail rail_electric rail_fast ship" speed="13.72" length="18.83" shape="295.69,286.43 292.19,282.27 288.50,279.17 284.62,277.11 280.56,276.11"/>
    </edge>

    <edge id="1047696857" from="2847672357" to="5020680581" name="שדרות שבעת הכוכבים" priority="12" type="highway.primary" spreadType="center" shape="459.62,291.22 379.29,281.65">
        <lane id="1047696857_0" index="0" disallow="tram rail_urban rail rail_electric rail_fast ship" speed="27.78" length="76.27" shape="455.14,295.52 379.40,286.50">
            <param key="origId" value="1047696857"/>
        </lane>
        <lane id="1047696857_1" index="1" disallow="tram rail_urban rail rail_electric rail_fast ship" speed="27.78" length="76.27" shape="455.51,292.34 379.78,283.32">
            <param key="origId" value="1047696857"/>
        </lane>
        <lane id="1047696857_2" index="2" disallow="tram rail_urban rail rail_electric rail_fast ship" speed="27.78" length="76.27" shape="455.89,289.16 380.16,280.14">
            <param key="origId" value="1047696857"/>
        </lane>
        <lane id="1047696857_3" index="3" disallow="tram rail_urban rail rail_electric rail_fast ship" speed="27.78" length="76.27" shape="456.27,285.99 380.54,276.96">
            <param key="origId" value="1047696857"/>
        </lane>
        <param key="ref" value="541"/>
    </edge>
    <edge id="1092819225" from="34136698" to="1888071004" name="שדרות שבעת הכוכבים" priority="12" type="highway.primary" spreadType="center" shape="610.39,299.74 644.25,307.55 670.13,313.79">
        <lane id="1092819225_0" index="0" disallow="tram rail_urban rail rail_electric rail_fast ship" speed="27.78" length="61.24" shape="610.87,298.21 644.62,305.99 670.51,312.23">
            <param key="origId" value="1092819225"/>
        </lane>
        <lane id="1092819225_1" index="1" disallow="tram rail_urban rail rail_electric rail_fast ship" speed="27.78" length="61.24" shape="610.15,301.33 643.88,309.11 669.75,315.35">
            <param key="origId" value="1092819225"/>
        </lane>
        <param key="ref" value="541"/>
    </edge>
    <edge id="178456429#1" from="5020680581" to="8998612808" priority="7" type="highway.primary_link" spreadType="center" shape="378.62,286.37 371.66,285.86 367.44,286.19 359.43,288.30 351.91,294.69 347.63,300.07 344.78,307.00 342.40,315.35 340.93,325.10">
        <lane id="178456429#1_0" index="0" disallow="tram rail_urban rail rail_electric rail_fast ship" speed="22.22" length="57.63" shape="376.34,286.20 371.66,285.86 367.44,286.19 359.43,288.30 351.91,294.69 347.63,300.07 344.78,307.00 342.40,315.35 341.28,322.77">
            <param key="origId" value="178456429"/>
        </lane>
    </edge>
    <edge id="178456430#0" from="1888071204" to="178456430#0-AddedOffRampNode" name="משה דיין" priority="10" type="highway.tertiary" spreadType="center" shape="435.33,578.19 402.48,526.22 393.02,511.48 390.11,506.93 378.45,489.62 357.11,448.83 350.27,431.25 349.18,428.51">
        <lane id="178456430#0_0" index="0" disallow="tram rail_urban rail rail_electric rail_fast ship" speed="22.22" length="169.12" shape="433.98,579.04 401.13,527.08 391.67,512.34 388.77,507.81 377.07,490.44 355.65,449.49 349.16,432.82">
            <param key="origId" value="178456430"/>
        </lane>
        <lane id="178456430#0_1" index="1" disallow="tram rail_urban rail rail_electric rail_fast ship" speed="22.22" length="169.12" shape="436.68,577.34 403.83,525.36 394.37,510.62 391.45,506.05 379.83,488.80 358.57,448.17 352.14,431.63">
            <param key="origId" value="178456430"/>
        </lane>
    </edge>
    <edge id="178456430#0-AddedOffRampEdge" from="178456430#0-AddedOffRampNode" to="1888071033" name="משה דיין" priority="10" type="highway.tertiary" spreadType="center" shape="346.21,429.68 339.27,412.12 332.56,390.17 326.23,368.76 321.20,350.84 317.89,333.32">
        <lane id="178456430#0-AddedOffRampEdge_0" index="0" disallow="tram rail_urban rail rail_electric rail_fast ship" speed="22.22" length="95.02" shape="340.28,427.73 334.74,413.71 327.96,391.55 321.62,370.09 316.52,351.94 313.47,335.77">
            <param key="origId" value="178456430"/>
        </lane>
        <lane id="178456430#0-AddedOffRampEdge_1" index="1" disallow="tram rail_urban rail rail_electric rail_fast ship" speed="22.22" length="95.02" shape="343.25,426.55 337.76,412.65 331.03,390.63 324.69,369.20 319.64,351.21 316.61,335.18">
            <param key="origId" value="178456430"/>
        </lane>
        <lane id="178456430#0-AddedOffRampEdge_2" index="2" disallow="tram rail_urban rail rail_electric rail_fast ship" speed="22.22" length="95.02" shape="346.23,425.37 340.78,411.59 334.09,389.71 327.77,368.32 322.76,350.47 319.76,334.58">
            <param key="origId" value="178456430"/>
        </lane>
        <lane id="178456430#0-AddedOffRampEdge_3" index="3" disallow="tram rail_urban rail rail_electric rail_fast ship" speed="22.22" length="95.02" shape="349.20,424.20 343.80,410.53 337.16,388.79 330.84,367.43 325.88,349.74 322.90,333.99">
            <param key="origId" value="178456430"/>
        </lane>
    </edge>
    <edge id="178456430#1" from="1888071033" to="cluster1132145011_cluster8595001343_cluster_1132144849_1888071112_316566761_8595001344_#3more" name="משה דיין" priority="10" type="highway.tertiary" spreadType="center" shape="321.03,332.72 316.07,285.08">
        <lane id="178456430#1_0" index="0" disallow="tram rail_urban rail rail_electric rail_fast ship" speed="22.22" length="42.52" shape="319.27,331.22 314.87,288.99">
            <param key="origId" value="178456430"/>
        </lane>
        <lane id="178456430#1_1" index="1" disallow="tram rail_urban rail rail_electric rail_fast ship" speed="22.22" length="42.52" shape="322.45,330.89 318.04,288.54">
            <param key="origId" value="178456430"/>
        </lane>
        <param key="origTo" value="8595001352"/>
    </edge>
    <edge id="198505048#0" from="3273365394" to="34136711" name="שדרות שבעת הכוכבים" priority="12" type="highway.primary" spreadType="center" shape="188.23,258.99 102.39,250.74">
        <lane id="198505048#0_0" index="0" disallow="tram rail_urban rail rail_electric rail_fast ship" speed="27.78" length="85.99" shape="187.22,266.93 101.62,258.70">
            <param key="origId" value="198505048"/>
        </lane>
        <lane id="198505048#0_1" index="1" disallow="tram rail_urban rail rail_electric rail_fast ship" speed="27.78" length="85.99" shape="187.53,263.74 101.93,255.52">
            <param key="origId" value="198505048"/>
        </lane>
        <lane id="198505048#0_2" index="2" disallow="tram rail_urban rail rail_electric rail_fast ship" speed="27.78" length="85.99" shape="187.83,260.56 102.24,252.33">
            <param key="origId" value="198505048"/>
        </lane>
        <lane id="198505048#0_3" index="3" disallow="tram rail_urban rail rail_electric rail_fast ship" speed="27.78" length="85.99" shape="188.14,257.37 102.54,249.15">
            <param key="origId" value="198505048"/>
        </lane>
        <lane id="198505048#0_4" index="4" disallow="tram rail_urban rail rail_electric rail_fast ship" speed="27.78" length="85.99" shape="188.44,254.19 102.85,245.96">
            <param key="origId" value="198505048"/>
        </lane>
        <lane id="198505048#0_5" index="5" disallow="tram rail_urban rail rail_electric rail_fast ship" speed="27.78" length="85.99" shape="188.75,251.00 103.16,242.78">
            <param key="origId" value="198505048"/>
        </lane>
        <param key="ref" value="541"/>
    </edge>
    <edge id="215834149" from="1537093185" to="34136698" name="שדרות שבעת הכוכבים" priority="12" type="highway.primary" spreadType="center" shape="381.01,262.47 456.43,271.05 566.15,290.97 610.39,299.74">
        <lane id="215834149_0" index="0" disallow="tram rail_urban rail rail_electric rail_fast ship" speed="13.89" length="230.20" shape="383.37,261.13 456.66,269.47 566.45,289.40 610.58,298.15">
            <param key="origId" value="215834149 32299305"/>
        </lane>
        <lane id="215834149_1" index="1" disallow="tram rail_urban rail rail_electric rail_fast ship" speed="13.89" length="230.20" shape="383.01,264.31 456.20,272.63 565.85,292.54 609.96,301.28">
            <param key="origId" value="215834149 32299305"/>
        </lane>
        <param key="ref" value="541"/>
    </edge>
    <edge id="215834156#0" from="2252682304" to="cluster1132145011_cluster8595001343_cluster_1132144849_1888071112_316566761_8595001344_#3more" name="שדרות שבעת הכוכבים" priority="12" type="highway.primary" spreadType="center" shape="251.31,243.95 310.74,252.18">
        <lane id="215834156#0_0" index="0" disallow="tram rail_urban rail rail_electric rail_fast ship" speed="27.78" length="32.59" shape="252.36,237.63 284.49,242.08">
            <param key="origId" value="215834156"/>
        </lane>
        <lane id="215834156#0_1" index="1" disallow="tram rail_urban rail rail_electric rail_fast ship" speed="27.78" length="32.59" shape="251.92,240.80 284.12,245.26">
            <param key="origId" value="215834156"/>
        </lane>
        <lane id="215834156#0_2" index="2" disallow="tram rail_urban rail rail_electric rail_fast ship" speed="27.78" length="32.59" shape="251.48,243.97 283.76,248.44">
            <param key="origId" value="215834156"/>
        </lane>
        <lane id="215834156#0_3" index="3" disallow="tram rail_urban rail rail_electric rail_fast ship" speed="27.78" length="32.59" shape="251.04,247.14 283.39,251.62">
            <param key="origId" value="215834156"/>
        </lane>
        <lane id="215834156#0_4" index="4" disallow="tram rail_urban rail rail_electric rail_fast ship" speed="27.78" length="32.59" shape="250.60,250.31 283.02,254.80">
            <param key="origId" value="215834156"/>
        </lane>
        <param key="origTo" value="8595001345"/>
        <param key="ref" value="541"/>
    </edge>
    <edge id="215834159" from="8942030193" to="363466018" name="שדרות שבעת הכוכבים" priority="12" type="highway.primary" spreadType="center" shape="652.42,332.54 615.82,323.36">
        <lane id="215834159_0" index="0" disallow="tram rail_urban rail rail_electric rail_fast ship" speed="19.44" length="36.40" shape="651.25,337.20 615.95,328.34">
            <param key="origId" value="215834159"/>
        </lane>
        <lane id="215834159_1" index="1" disallow="tram rail_urban rail rail_electric rail_fast ship" speed="19.44" length="36.40" shape="652.03,334.09 616.73,325.24">
            <param key="origId" value="215834159"/>
        </lane>
        <lane id="215834159_2" index="2" disallow="tram rail_urban rail rail_electric rail_fast ship" speed="19.44" length="36.40" shape="652.81,330.99 617.51,322.13">
            <param key="origId" value="215834159"/>
        </lane>
        <lane id="215834159_3" index="3" disallow="tram rail_urban rail rail_electric rail_fast ship" speed="19.44" length="36.40" shape="653.59,327.88 618.29,319.03">
            <param key="origId" value="215834159"/>
        </lane>
        <param key="ref" value="541"/>
    </edge>