<?xml version="1.0" encoding="UTF-8"?>

<!-- generated on 2024-06-29 15:06:57 by Eclipse SUMO netedit Version 1.20.0
<configuration xmlns:xsi="http://www.w3.org/2001/XMLSchema-instance" xsi:noNamespaceSchemaLocation="http://sumo.dlr.de/xsd/neteditConfiguration.xsd">

    <input>
        <route-files value="/Users/eviat/Desktop/Final_Project/SUMO_FILE/intersection_4/routes_4/intersection_4_new_medium_35.rou.xml"/>
        <sumo-net-file value="/Users/eviat/Desktop/Final_Project/SUMO_FILE/intersection_4/intersection_4.net.xml"/>
    </input>

    <output>
        <output-file value="/Users/eviat/Desktop/Final_Project/SUMO_FILE/intersection_4/intersection_4.net.xml"/>
        <output.street-names value="true"/>
    </output>

    <processing>
        <geometry.min-radius.fix.railways value="false"/>
        <geometry.max-grade.fix value="false"/>
        <offset.disable-normalization value="true"/>
        <lefthand value="0"/>
    </processing>

    <junctions>
        <no-turnarounds value="true"/>
        <junctions.corner-detail value="5"/>
        <junctions.limit-turn-speed value="5.50"/>
        <rectangular-lane-cut value="0"/>
    </junctions>

    <pedestrian>
        <walkingareas value="0"/>
    </pedestrian>

</configuration>
-->

<net version="1.20" junctionCornerDetail="5" limitTurnSpeed="5.50" xmlns:xsi="http://www.w3.org/2001/XMLSchema-instance" xsi:noNamespaceSchemaLocation="http://sumo.dlr.de/xsd/net_file.xsd">

    <location netOffset="-3875201.03,-3784120.92" convBoundary="0.00,0.00,677.26,624.03" origBoundary="34.811523,32.158399,34.817610,32.163144" projParameter="+proj=merc +a=6378137 +b=6378137 +lat_ts=0.0 +lon_0=0.0 +x_0=0.0 +y_0=0 +k=1.0 +units=m +nadgrids=@null +wktext +no_defs"/>

    <type id="highway.footway" priority="1" numLanes="1" speed="2.78" allow="pedestrian" oneway="1" width="2.00"/>
    <type id="highway.motorway" priority="14" numLanes="2" speed="39.44" allow="private emergency authority army vip passenger hov taxi bus coach delivery truck trailer motorcycle evehicle custom1 custom2" oneway="1"/>
    <type id="highway.motorway_link" priority="9" numLanes="1" speed="22.22" allow="private emergency authority army vip passenger hov taxi bus coach delivery truck trailer motorcycle evehicle custom1 custom2" oneway="1"/>
    <type id="highway.pedestrian" priority="1" numLanes="1" speed="2.78" allow="pedestrian" oneway="1" width="2.00"/>
    <type id="highway.primary" priority="12" numLanes="2" speed="27.78" disallow="tram rail_urban rail rail_electric rail_fast ship container cable_car subway aircraft wheelchair scooter drone" oneway="0"/>
    <type id="highway.primary_link" priority="7" numLanes="1" speed="22.22" disallow="tram rail_urban rail rail_electric rail_fast ship container cable_car subway aircraft wheelchair scooter drone" oneway="0"/>
    <type id="highway.tertiary" priority="10" numLanes="1" speed="22.22" disallow="tram rail_urban rail rail_electric rail_fast ship container cable_car subway aircraft wheelchair scooter drone" oneway="0"/>
    <type id="highway.tertiary_link" priority="5" numLanes="1" speed="22.22" disallow="tram rail_urban rail rail_electric rail_fast ship container cable_car subway aircraft wheelchair scooter drone" oneway="0"/>
    <type id="highway.track" priority="1" numLanes="1" speed="5.56" allow="pedestrian motorcycle moped bicycle" oneway="0"/>

    <edge id=":10008349419_0" function="internal">
        <lane id=":10008349419_0_0" index="0" disallow="tram rail_urban rail rail_electric rail_fast ship container cable_car subway aircraft wheelchair scooter drone" speed="22.22" length="8.20" shape="16.83,471.29 15.54,469.28 14.33,468.12 13.11,466.97 11.78,464.98"/>
        <lane id=":10008349419_0_1" index="1" disallow="tram rail_urban rail rail_electric rail_fast ship container cable_car subway aircraft wheelchair scooter drone" speed="22.22" length="8.20" shape="19.69,469.84 18.39,467.83 17.17,466.66 15.95,465.49 14.61,463.49"/>
        <lane id=":10008349419_0_2" index="2" disallow="tram rail_urban rail rail_electric rail_fast ship container cable_car subway aircraft wheelchair scooter drone" speed="22.22" length="8.20" shape="22.55,468.40 21.24,466.37 20.02,465.19 18.79,464.02 17.44,462.00"/>
        <lane id=":10008349419_0_3" index="3" disallow="tram rail_urban rail rail_electric rail_fast ship container cable_car subway aircraft wheelchair scooter drone" speed="22.22" length="8.20" shape="22.55,468.40 21.68,466.13 21.43,464.44 21.18,462.76 20.28,460.51"/>
    </edge>
    <edge id=":1537093185_0" function="internal">
        <lane id=":1537093185_0_0" index="0" allow="private emergency authority army vip passenger hov taxi bus coach delivery truck trailer motorcycle evehicle custom1 custom2" speed="25.00" length="3.33" shape="380.16,254.28 381.14,254.40 381.82,254.45 382.49,254.43 383.48,254.36"/>
        <lane id=":1537093185_0_1" index="1" allow="private emergency authority army vip passenger hov taxi bus coach delivery truck trailer motorcycle evehicle custom1 custom2" speed="25.00" length="4.00" shape="379.74,257.45 380.92,257.60 381.73,257.66 382.55,257.64 383.73,257.55"/>
    </edge>
    <edge id=":1537093185_2" function="internal">
        <lane id=":1537093185_2_0" index="0" disallow="tram rail_urban rail rail_electric rail_fast ship container cable_car subway aircraft wheelchair scooter drone" speed="20.84" length="4.11" shape="379.32,260.62 383.37,261.13"/>
        <lane id=":1537093185_2_1" index="1" disallow="tram rail_urban rail rail_electric rail_fast ship container cable_car subway aircraft wheelchair scooter drone" speed="20.84" length="4.11" shape="378.91,263.79 383.01,264.31"/>
    </edge>
    <edge id=":178456430#0-AddedOffRampNode_0" function="internal">
        <lane id=":178456430#0-AddedOffRampNode_0_0" index="0" disallow="tram rail_urban rail rail_electric rail_fast ship container cable_car subway aircraft wheelchair scooter drone" speed="22.22" length="8.91" shape="349.16,432.82 347.26,430.68 344.73,430.27 342.20,429.86 340.28,427.73"/>
        <lane id=":178456430#0-AddedOffRampNode_0_1" index="1" disallow="tram rail_urban rail rail_electric rail_fast ship container cable_car subway aircraft wheelchair scooter drone" speed="22.22" length="8.91" shape="349.16,432.82 347.80,430.71 346.22,429.68 344.62,428.65 343.25,426.55"/>
        <lane id=":178456430#0-AddedOffRampNode_0_2" index="2" disallow="tram rail_urban rail rail_electric rail_fast ship container cable_car subway aircraft wheelchair scooter drone" speed="22.22" length="8.91" shape="349.16,432.82 346.23,425.37"/>
        <lane id=":178456430#0-AddedOffRampNode_0_3" index="3" disallow="tram rail_urban rail rail_electric rail_fast ship container cable_car subway aircraft wheelchair scooter drone" speed="22.22" length="8.91" shape="352.14,431.63 349.20,424.20"/>
    </edge>
    <edge id=":1888071023_0" function="internal">
        <lane id=":1888071023_0_0" index="0" allow="private emergency authority army vip passenger hov taxi bus coach delivery truck trailer motorcycle evehicle custom1 custom2" speed="22.22" length="7.53" shape="644.25,454.55 645.32,456.36 646.40,457.37 647.56,458.34 648.84,460.04"/>
        <lane id=":1888071023_0_1" index="1" allow="private emergency authority army vip passenger hov taxi bus coach delivery truck trailer motorcycle evehicle custom1 custom2" speed="22.22" length="7.53" shape="641.32,455.84 642.43,457.75 643.55,458.83 644.75,459.87 646.09,461.67"/>
        <lane id=":1888071023_0_2" index="2" allow="private emergency authority army vip passenger hov taxi bus coach delivery truck trailer motorcycle evehicle custom1 custom2" speed="22.22" length="7.53" shape="641.32,455.84 642.01,458.03 642.17,459.64 642.41,461.22 643.33,463.29"/>
    </edge>
    <edge id=":1888071033_0" function="internal">
        <lane id=":1888071033_0_0" index="0" disallow="tram rail_urban rail rail_electric rail_fast ship container cable_car subway aircraft wheelchair scooter drone" speed="22.22" length="3.29" shape="313.47,335.77 312.82,332.60"/>
        <lane id=":1888071033_0_1" index="1" disallow="tram rail_urban rail rail_electric rail_fast ship container cable_car subway aircraft wheelchair scooter drone" speed="22.22" length="3.29" shape="316.61,335.18 315.94,331.90"/>
    </edge>
    <edge id=":1888071033_2" function="internal">
        <lane id=":1888071033_2_0" index="0" disallow="tram rail_urban rail rail_electric rail_fast ship container cable_car subway aircraft wheelchair scooter drone" speed="22.22" length="3.26" shape="319.76,334.58 319.27,331.22"/>
        <lane id=":1888071033_2_1" index="1" disallow="tram rail_urban rail rail_electric rail_fast ship container cable_car subway aircraft wheelchair scooter drone" speed="22.22" length="3.26" shape="322.90,333.99 322.45,330.89"/>
    </edge>
    <edge id=":2252682304_0" function="internal">
        <lane id=":2252682304_0_0" index="0" disallow="tram rail_urban rail rail_electric rail_fast ship container cable_car subway aircraft wheelchair scooter drone" speed="27.78" length="0.34" shape="251.91,237.58 252.36,237.63"/>
        <lane id=":2252682304_0_1" index="1" disallow="tram rail_urban rail rail_electric rail_fast ship container cable_car subway aircraft wheelchair scooter drone" speed="27.78" length="0.34" shape="251.52,240.75 251.92,240.80"/>
        <lane id=":2252682304_0_2" index="2" disallow="tram rail_urban rail rail_electric rail_fast ship container cable_car subway aircraft wheelchair scooter drone" speed="27.78" length="0.34" shape="251.14,243.93 251.48,243.97"/>
        <lane id=":2252682304_0_3" index="3" disallow="tram rail_urban rail rail_electric rail_fast ship container cable_car subway aircraft wheelchair scooter drone" speed="27.78" length="0.34" shape="250.76,247.11 251.04,247.14"/>
        <lane id=":2252682304_0_4" index="4" disallow="tram rail_urban rail rail_electric rail_fast ship container cable_car subway aircraft wheelchair scooter drone" speed="27.78" length="0.34" shape="250.38,250.28 250.60,250.31"/>
    </edge>
    <edge id=":2847672357_0" function="internal">
        <lane id=":2847672357_0_0" index="0" disallow="tram rail_urban rail rail_electric rail_fast ship container cable_car subway aircraft wheelchair scooter drone" speed="27.78" length="8.08" shape="462.98,295.03 460.67,294.90 459.07,295.20 457.46,295.55 455.14,295.52"/>
        <lane id=":2847672357_0_1" index="1" disallow="tram rail_urban rail rail_electric rail_fast ship container cable_car subway aircraft wheelchair scooter drone" speed="27.78" length="8.08" shape="462.98,295.03 460.72,294.40 459.26,293.62 457.79,292.87 455.51,292.34"/>
        <lane id=":2847672357_0_2" index="2" disallow="tram rail_urban rail rail_electric rail_fast ship container cable_car subway aircraft wheelchair scooter drone" speed="27.78" length="8.08" shape="463.51,291.87 461.20,291.23 459.71,290.45 458.22,289.70 455.89,289.16"/>
        <lane id=":2847672357_0_3" index="3" disallow="tram rail_urban rail rail_electric rail_fast ship container cable_car subway aircraft wheelchair scooter drone" speed="27.78" length="8.08" shape="464.04,288.72 461.69,288.07 460.17,287.28 458.64,286.52 456.27,285.99"/>
    </edge>
    <edge id=":3273365394_0" function="internal">
        <lane id=":3273365394_0_0" index="0" disallow="tram rail_urban rail rail_electric rail_fast ship container cable_car subway aircraft wheelchair scooter drone" speed="27.78" length="1.67" shape="187.34,268.55 187.22,266.93"/>
        <lane id=":3273365394_0_1" index="1" disallow="tram rail_urban rail rail_electric rail_fast ship container cable_car subway aircraft wheelchair scooter drone" speed="27.78" length="1.67" shape="187.71,265.37 187.53,263.74"/>
        <lane id=":3273365394_0_2" index="2" disallow="tram rail_urban rail rail_electric rail_fast ship container cable_car subway aircraft wheelchair scooter drone" speed="27.78" length="1.67" shape="188.07,262.20 187.83,260.56"/>
        <lane id=":3273365394_0_3" index="3" disallow="tram rail_urban rail rail_electric rail_fast ship container cable_car subway aircraft wheelchair scooter drone" speed="27.78" length="1.67" shape="188.44,259.02 188.14,257.37"/>
        <lane id=":3273365394_0_4" index="4" disallow="tram rail_urban rail rail_electric rail_fast ship container cable_car subway aircraft wheelchair scooter drone" speed="27.78" length="1.67" shape="188.81,255.84 188.44,254.19"/>
        <lane id=":3273365394_0_5" index="5" disallow="tram rail_urban rail rail_electric rail_fast ship container cable_car subway aircraft wheelchair scooter drone" speed="27.78" length="1.67" shape="189.18,252.66 188.75,251.00"/>
    </edge>
    <edge id=":34136698_0" function="internal">
        <lane id=":34136698_0_0" index="0" disallow="tram rail_urban rail rail_electric rail_fast ship container cable_car subway aircraft wheelchair scooter drone" speed="20.84" length="0.25" shape="610.58,298.15 610.87,298.21"/>
        <lane id=":34136698_0_1" index="1" disallow="tram rail_urban rail rail_electric rail_fast ship container cable_car subway aircraft wheelchair scooter drone" speed="20.84" length="0.25" shape="609.96,301.28 610.15,301.33"/>
    </edge>
    <edge id=":363466018_0" function="internal">
        <lane id=":363466018_0_0" index="0" allow="private emergency authority army vip passenger hov taxi bus coach delivery truck trailer motorcycle evehicle custom1 custom2" speed="16.66" length="2.66" shape="615.95,328.34 613.35,327.76"/>
    </edge>
    <edge id=":363466018_1" function="internal">
        <lane id=":363466018_1_0" index="0" disallow="tram rail_urban rail rail_electric rail_fast ship container cable_car subway aircraft wheelchair scooter drone" speed="23.61" length="2.99" shape="616.73,325.24 613.98,324.58"/>
        <lane id=":363466018_1_1" index="1" disallow="tram rail_urban rail rail_electric rail_fast ship container cable_car subway aircraft wheelchair scooter drone" speed="23.61" length="2.99" shape="617.51,322.13 614.60,321.44"/>
        <lane id=":363466018_1_2" index="2" disallow="tram rail_urban rail rail_electric rail_fast ship container cable_car subway aircraft wheelchair scooter drone" speed="23.61" length="2.99" shape="618.29,319.03 615.22,318.30"/>
    </edge>
    <edge id=":5020680581_0" function="internal">
        <lane id=":5020680581_0_0" index="0" disallow="tram rail_urban rail rail_electric rail_fast ship container cable_car subway aircraft wheelchair scooter drone" speed="25.00" length="3.07" shape="379.40,286.50 376.34,286.20"/>
    </edge>
    <edge id=":5020680581_1" function="internal">
        <lane id=":5020680581_1_0" index="0" disallow="tram rail_urban rail rail_electric rail_fast ship container cable_car subway aircraft wheelchair scooter drone" speed="27.78" length="2.61" shape="379.78,283.32 377.13,282.96"/>
        <lane id=":5020680581_1_1" index="1" disallow="tram rail_urban rail rail_electric rail_fast ship container cable_car subway aircraft wheelchair scooter drone" speed="27.78" length="2.61" shape="380.16,280.14 377.57,279.79"/>
        <lane id=":5020680581_1_2" index="2" disallow="tram rail_urban rail rail_electric rail_fast ship container cable_car subway aircraft wheelchair scooter drone" speed="27.78" length="2.61" shape="380.54,276.96 378.01,276.62"/>
    </edge>
    <edge id=":5020680597_0" function="internal">
        <lane id=":5020680597_0_0" index="0" allow="private emergency authority army vip passenger hov taxi bus coach delivery truck trailer motorcycle evehicle custom1 custom2" speed="13.89" length="0.40" shape="423.41,304.36 423.35,304.36 423.30,304.37 423.26,304.38 423.21,304.39"/>
        <lane id=":5020680597_0_1" index="1" allow="private emergency authority army vip passenger hov taxi bus coach delivery truck trailer motorcycle evehicle custom1 custom2" speed="13.89" length="0.40" shape="423.16,301.17 422.98,301.18 422.86,301.20 422.73,301.22 422.56,301.25"/>
    </edge>
    <edge id=":5020680599_0" function="internal">
        <lane id=":5020680599_0_0" index="0" allow="private emergency authority army vip passenger hov taxi bus coach delivery truck trailer motorcycle evehicle custom1 custom2" speed="22.22" length="0.76" shape="405.21,249.89 405.31,249.84 405.38,249.80 405.44,249.76 405.53,249.69"/>
        <lane id=":5020680599_0_1" index="1" allow="private emergency authority army vip passenger hov taxi bus coach delivery truck trailer motorcycle evehicle custom1 custom2" speed="22.22" length="0.76" shape="406.58,252.78 406.88,252.63 407.09,252.52 407.28,252.39 407.54,252.18"/>
    </edge>
    <edge id=":537521539_0" function="internal">
        <lane id=":537521539_0_0" index="0" allow="pedestrian motorcycle moped bicycle" speed="3.65" length="4.67" shape="359.75,31.26 360.39,29.96 361.13,29.46 361.98,29.76 362.93,30.84"/>
    </edge>
    <edge id=":537521540_0" function="internal">
        <lane id=":537521540_0_0" index="0" allow="pedestrian motorcycle moped bicycle" speed="5.56" length="7.19" shape="367.92,68.81 367.90,70.76 367.29,72.29 366.07,73.41 364.26,74.11"/>
    </edge>
    <edge id=":537521540_1" function="internal">
        <lane id=":537521540_1_0" index="0" allow="pedestrian motorcycle moped bicycle" speed="3.65" length="4.67" shape="367.92,68.81 367.28,70.11 366.54,70.61 365.70,70.32 364.75,69.23"/>
    </edge>
    <edge id=":537521540_2" function="internal">
        <lane id=":537521540_2_0" index="0" allow="pedestrian motorcycle moped bicycle" speed="3.91" length="2.40" shape="363.53,71.00 364.13,70.76 364.54,70.39 364.74,69.88 364.75,69.23"/>
    </edge>
    <edge id=":537521540_3" function="internal">
        <lane id=":537521540_3_0" index="0" allow="pedestrian motorcycle moped bicycle" speed="3.65" length="4.67" shape="363.53,71.00 364.88,71.50 365.45,72.19 365.24,73.06 364.26,74.11"/>
    </edge>
    <edge id=":537521543_0" function="internal">
        <lane id=":537521543_0_0" index="0" allow="pedestrian motorcycle moped bicycle" speed="3.65" length="4.67" shape="332.54,96.94 331.13,97.22 330.28,96.94 330.00,96.09 330.28,94.68"/>
    </edge>
    <edge id=":591538486_0" function="internal">
        <lane id=":591538486_0_0" index="0" allow="pedestrian motorcycle moped bicycle" speed="3.65" length="4.67" shape="548.82,71.97 548.89,70.53 549.37,69.78 550.26,69.71 551.56,70.33"/>
    </edge>
    <edge id=":612951924_0" function="internal">
        <lane id=":612951924_0_0" index="0" allow="pedestrian motorcycle moped bicycle" speed="3.65" length="4.67" shape="572.63,92.67 573.35,93.92 573.36,94.82 572.64,95.36 571.21,95.55"/>
    </edge>
    <edge id=":6928860400_0" function="internal">
        <lane id=":6928860400_0_0" index="0" allow="private emergency authority army vip passenger hov taxi bus coach delivery truck trailer motorcycle evehicle custom1 custom2" speed="13.89" length="7.73" shape="501.08,305.57 498.85,305.39 497.31,305.68 495.75,306.04 493.50,306.07"/>
        <lane id=":6928860400_0_1" index="1" allow="private emergency authority army vip passenger hov taxi bus coach delivery truck trailer motorcycle evehicle custom1 custom2" speed="13.89" length="7.73" shape="501.08,305.57 498.88,304.88 497.46,304.09 496.03,303.36 493.80,302.89"/>
    </edge>
    <edge id=":6932897455_0" function="internal">
        <lane id=":6932897455_0_0" index="0" disallow="tram rail_urban rail rail_electric rail_fast ship container cable_car subway aircraft wheelchair scooter drone" speed="27.78" length="8.00" shape="194.61,230.53 202.41,231.62"/>
        <lane id=":6932897455_0_1" index="1" disallow="tram rail_urban rail rail_electric rail_fast ship container cable_car subway aircraft wheelchair scooter drone" speed="27.78" length="8.00" shape="194.17,233.70 202.03,234.79"/>
        <lane id=":6932897455_0_2" index="2" disallow="tram rail_urban rail rail_electric rail_fast ship container cable_car subway aircraft wheelchair scooter drone" speed="27.78" length="8.00" shape="193.73,236.87 201.65,237.97"/>
        <lane id=":6932897455_0_3" index="3" disallow="tram rail_urban rail rail_electric rail_fast ship container cable_car subway aircraft wheelchair scooter drone" speed="27.78" length="8.00" shape="193.29,240.04 201.27,241.15"/>
        <lane id=":6932897455_0_4" index="4" disallow="tram rail_urban rail rail_electric rail_fast ship container cable_car subway aircraft wheelchair scooter drone" speed="27.78" length="8.00" shape="192.84,243.21 200.88,244.33"/>
    </edge>
    <edge id=":889092618#2-AddedOnRampNode_0" function="internal">
        <lane id=":889092618#2-AddedOnRampNode_0_0" index="0" disallow="tram rail_urban rail rail_electric rail_fast ship container cable_car subway aircraft wheelchair scooter drone" speed="22.22" length="8.00" shape="379.02,461.12 382.72,468.21"/>
        <lane id=":889092618#2-AddedOnRampNode_0_1" index="1" disallow="tram rail_urban rail rail_electric rail_fast ship container cable_car subway aircraft wheelchair scooter drone" speed="22.22" length="8.00" shape="376.18,462.61 379.89,469.70"/>
    </edge>
    <edge id=":8998612808_0" function="internal">
        <lane id=":8998612808_0_0" index="0" disallow="tram rail_urban rail rail_electric rail_fast ship container cable_car subway aircraft wheelchair scooter drone" speed="19.29" length="3.49" shape="341.28,322.77 341.14,323.79 341.09,324.50 341.15,325.21 341.31,326.23"/>
    </edge>
    <edge id=":8998612808_1" function="internal">
        <lane id=":8998612808_1_0" index="0" disallow="tram rail_urban rail rail_electric rail_fast ship container cable_car subway aircraft wheelchair scooter drone" speed="22.22" length="8.62" shape="336.78,318.28 338.15,326.75"/>
        <lane id=":8998612808_1_1" index="1" disallow="tram rail_urban rail rail_electric rail_fast ship container cable_car subway aircraft wheelchair scooter drone" speed="22.22" length="8.62" shape="333.61,318.73 334.99,327.28"/>
    </edge>
    <edge id=":cluster1132145011_cluster8595001343_cluster_1132144849_1888071112_316566761_8595001344_#3more_0" function="internal">
        <lane id=":cluster1132145011_cluster8595001343_cluster_1132144849_1888071112_316566761_8595001344_#3more_0_0" index="0" disallow="tram rail_urban rail rail_electric rail_fast ship container cable_car subway aircraft wheelchair scooter drone" speed="13.62" length="50.34" shape="314.87,288.99 314.50,273.85 317.69,262.91 325.59,256.73 339.34,255.87"/>
        <lane id=":cluster1132145011_cluster8595001343_cluster_1132144849_1888071112_316566761_8595001344_#3more_0_1" index="1" disallow="tram rail_urban rail rail_electric rail_fast ship container cable_car subway aircraft wheelchair scooter drone" speed="12.79" length="44.21" shape="318.04,288.54 317.62,275.18 320.24,265.43 326.99,259.87 338.97,259.05"/>
    </edge>
    <edge id=":cluster1132145011_cluster8595001343_cluster_1132144849_1888071112_316566761_8595001344_#3more_2" function="internal">
        <lane id=":cluster1132145011_cluster8595001343_cluster_1132144849_1888071112_316566761_8595001344_#3more_2_0" index="0" disallow="tram rail_urban rail rail_electric rail_fast ship container cable_car subway aircraft wheelchair scooter drone" speed="27.78" length="56.31" shape="336.85,277.32 325.69,277.21 313.51,278.75 298.84,280.06 280.19,279.29"/>
        <lane id=":cluster1132145011_cluster8595001343_cluster_1132144849_1888071112_316566761_8595001344_#3more_2_1" index="1" disallow="tram rail_urban rail rail_electric rail_fast ship container cable_car subway aircraft wheelchair scooter drone" speed="27.78" length="56.31" shape="336.85,277.32 325.72,276.71 313.62,277.15 299.06,277.37 280.56,276.11"/>
        <lane id=":cluster1132145011_cluster8595001343_cluster_1132144849_1888071112_316566761_8595001344_#3more_2_2" index="2" disallow="tram rail_urban rail rail_electric rail_fast ship container cable_car subway aircraft wheelchair scooter drone" speed="27.78" length="56.31" shape="337.22,274.14 326.09,273.53 313.99,273.97 299.43,274.19 280.93,272.93"/>
        <lane id=":cluster1132145011_cluster8595001343_cluster_1132144849_1888071112_316566761_8595001344_#3more_2_3" index="3" disallow="tram rail_urban rail rail_electric rail_fast ship container cable_car subway aircraft wheelchair scooter drone" speed="27.78" length="56.31" shape="337.22,274.14 281.29,269.75"/>
        <lane id=":cluster1132145011_cluster8595001343_cluster_1132144849_1888071112_316566761_8595001344_#3more_2_4" index="4" disallow="tram rail_urban rail rail_electric rail_fast ship container cable_car subway aircraft wheelchair scooter drone" speed="27.78" length="56.31" shape="337.59,270.96 281.66,266.57"/>
        <lane id=":cluster1132145011_cluster8595001343_cluster_1132144849_1888071112_316566761_8595001344_#3more_2_5" index="5" disallow="tram rail_urban rail rail_electric rail_fast ship container cable_car subway aircraft wheelchair scooter drone" speed="27.78" length="56.31" shape="337.59,270.96 282.03,263.39"/>
    </edge>
    <edge id=":cluster1132145011_cluster8595001343_cluster_1132144849_1888071112_316566761_8595001344_#3more_8" function="internal">
        <lane id=":cluster1132145011_cluster8595001343_cluster_1132144849_1888071112_316566761_8595001344_#3more_8_0" index="0" disallow="tram rail_urban rail rail_electric rail_fast ship container cable_car subway aircraft wheelchair scooter drone" speed="27.78" length="56.08" shape="284.49,242.08 340.08,249.51"/>
        <lane id=":cluster1132145011_cluster8595001343_cluster_1132144849_1888071112_316566761_8595001344_#3more_8_1" index="1" disallow="tram rail_urban rail rail_electric rail_fast ship container cable_car subway aircraft wheelchair scooter drone" speed="27.78" length="56.08" shape="284.12,245.26 339.71,252.69"/>
        <lane id=":cluster1132145011_cluster8595001343_cluster_1132144849_1888071112_316566761_8595001344_#3more_8_2" index="2" disallow="tram rail_urban rail rail_electric rail_fast ship container cable_car subway aircraft wheelchair scooter drone" speed="27.78" length="56.08" shape="283.76,248.44 339.34,255.87"/>
    </edge>
    <edge id=":cluster1132145011_cluster8595001343_cluster_1132144849_1888071112_316566761_8595001344_#3more_11" function="internal">
        <lane id=":cluster1132145011_cluster8595001343_cluster_1132144849_1888071112_316566761_8595001344_#3more_11_0" index="0" disallow="tram rail_urban rail rail_electric rail_fast ship container cable_car subway aircraft wheelchair scooter drone" speed="18.69" length="64.56" shape="283.39,251.62 303.24,256.13 317.99,263.45 327.67,273.57 332.25,286.51"/>
        <lane id=":cluster1132145011_cluster8595001343_cluster_1132144849_1888071112_316566761_8595001344_#3more_11_1" index="1" disallow="tram rail_urban rail rail_electric rail_fast ship container cable_car subway aircraft wheelchair scooter drone" speed="18.07" length="60.35" shape="283.02,254.80 301.77,259.01 315.70,265.77 324.80,275.09 329.09,286.97"/>
    </edge>
    <edge id=":cluster1132145011_cluster8595001343_cluster_1132144849_1888071112_316566761_8595001344_#3more_13" function="internal">
        <lane id=":cluster1132145011_cluster8595001343_cluster_1132144849_1888071112_316566761_8595001344_#3more_13_0" index="0" disallow="tram rail_urban rail rail_electric rail_fast ship container cable_car subway aircraft wheelchair scooter drone" speed="12.74" length="16.19" shape="293.11,288.31 290.05,284.66 286.88,281.94 283.59,280.15 280.19,279.29"/>
        <lane id=":cluster1132145011_cluster8595001343_cluster_1132144849_1888071112_316566761_8595001344_#3more_13_1" index="1" disallow="tram rail_urban rail rail_electric rail_fast ship container cable_car subway aircraft wheelchair scooter drone" speed="13.72" length="18.83" shape="295.69,286.43 292.19,282.27 288.50,279.17 284.62,277.11 280.56,276.11"/>
    </edge>

    <edge id="-42919525#0" from="537521540" to="537521539" priority="1" type="highway.track">
        <lane id="-42919525#0_0" index="0" allow="pedestrian motorcycle moped bicycle" speed="5.56" length="38.30" shape="364.75,69.23 359.75,31.26">
            <param key="origId" value="42919525"/>
        </lane>
    </edge>
    <edge id="-538831137" from="537521543" to="537521540" priority="1" type="highway.track" shape="331.41,95.81 351.76,75.41 366.71,71.89">
        <lane id="-538831137_0" index="0" allow="pedestrian motorcycle moped bicycle" speed="5.56" length="42.19" shape="330.28,94.68 350.95,73.96 363.53,71.00">
            <param key="origId" value="538831137"/>
        </lane>
    </edge>
    <edge id="-848887921" from="591538486" to="612951924" priority="1" type="highway.track" shape="550.19,71.15 560.52,88.50 571.92,94.11">
        <lane id="-848887921_0" index="0" allow="pedestrian motorcycle moped bicycle" speed="5.56" length="31.95" shape="551.56,70.33 561.65,87.27 572.63,92.67">
            <param key="origId" value="848887921"/>
        </lane>
    </edge>
    <edge id="1047696857" from="2847672357" to="5020680581" name="שדרות שבעת הכוכבים" priority="12" type="highway.primary" spreadType="center" shape="459.62,291.22 379.29,281.65">
        <lane id="1047696857_0" index="0" disallow="tram rail_urban rail rail_electric rail_fast ship container cable_car subway aircraft wheelchair scooter drone" speed="27.78" length="76.27" shape="455.14,295.52 379.40,286.50">
            <param key="origId" value="1047696857"/>
        </lane>
        <lane id="1047696857_1" index="1" disallow="tram rail_urban rail rail_electric rail_fast ship container cable_car subway aircraft wheelchair scooter drone" speed="27.78" length="76.27" shape="455.51,292.34 379.78,283.32">
            <param key="origId" value="1047696857"/>
        </lane>
        <lane id="1047696857_2" index="2" disallow="tram rail_urban rail rail_electric rail_fast ship container cable_car subway aircraft wheelchair scooter drone" speed="27.78" length="76.27" shape="455.89,289.16 380.16,280.14">
            <param key="origId" value="1047696857"/>
        </lane>