<?xml version="1.0" encoding="UTF-8"?>

<!-- generated on 2024-06-30 12:07:46 by Eclipse SUMO sumo Version 1.20.0
-->

<configuration xmlns:xsi="http://www.w3.org/2001/XMLSchema-instance" xsi:noNamespaceSchemaLocation="http://sumo.dlr.de/xsd/sumoConfiguration.xsd">

    <input>
        <net-file value="intersection_1.net.xml"/>
        <route-files value="routes_1/intersection_1_random_1.rou.xml"/>
    </input>

</configuration>
