<?xml version="1.0" encoding="UTF-8"?>

<!-- generated on 2024-07-17 23:06:28 by Eclipse SUMO sumo Version 1.20.0
-->

<configuration xmlns:xsi="http://www.w3.org/2001/XMLSchema-instance" xsi:noNamespaceSchemaLocation="http://sumo.dlr.de/xsd/sumoConfiguration.xsd">

    <input>
        <net-file value="intersection_1.net.xml"/>
        <route-files value="routes_1_hour/intersection_1_19_20_.rou.xml"/>
    </input>

</configuration>
