<?xml version="1.0" encoding="UTF-8"?>

<!-- generated on 2024-06-28 21:33:06 by Eclipse SUMO netedit Version 1.20.0
<configuration xmlns:xsi="http://www.w3.org/2001/XMLSchema-instance" xsi:noNamespaceSchemaLocation="http://sumo.dlr.de/xsd/neteditConfiguration.xsd">

    <input>
        <sumocfg-file value="/Users/eviat/Desktop/Final_Project/SUMO_FILE/intersection_1/intersection_1.sumocfg"/>
        <sumo-net-file value="/Users/eviat/Desktop/Final_Project/SUMO_FILE/intersection_1/intersection_1.net.xml"/>
    </input>

    <output>
        <output-file value="/Users/eviat/Desktop/Final_Project/SUMO_FILE/intersection_1/intersection_1.net.xml"/>
        <output.street-names value="true"/>
    </output>

    <processing>
        <geometry.min-radius.fix.railways value="false"/>
        <geometry.max-grade.fix value="false"/>
        <offset.disable-normalization value="true"/>
        <lefthand value="0"/>
    </processing>

    <junctions>
        <no-turnarounds value="true"/>
        <junctions.corner-detail value="5"/>
        <junctions.limit-turn-speed value="5.50"/>
        <rectangular-lane-cut value="0"/>
    </junctions>

    <pedestrian>
        <walkingareas value="0"/>
    </pedestrian>

</configuration>
-->

<net version="1.20" junctionCornerDetail="5" limitTurnSpeed="5.50" xmlns:xsi="http://www.w3.org/2001/XMLSchema-instance" xsi:noNamespaceSchemaLocation="http://sumo.dlr.de/xsd/net_file.xsd">

    <location netOffset="-3876622.47,-3784389.33" convBoundary="0.00,0.00,820.76,817.57" origBoundary="34.824292,32.160440,34.831665,32.166657" projParameter="+proj=merc +a=6378137 +b=6378137 +lat_ts=0.0 +lon_0=0.0 +x_0=0.0 +y_0=0 +k=1.0 +units=m +nadgrids=@null +wktext +no_defs"/>

    <type id="highway.footway" priority="1" numLanes="1" speed="2.78" allow="pedestrian" oneway="1" width="2.00"/>
    <type id="highway.path" priority="1" numLanes="1" speed="5.56" allow="pedestrian bicycle" oneway="0" width="2.00"/>
    <type id="highway.primary" priority="12" numLanes="2" speed="27.78" disallow="tram rail_urban rail rail_electric rail_fast ship container cable_car subway aircraft wheelchair scooter drone" oneway="0"/>
    <type id="highway.primary_link" priority="7" numLanes="1" speed="22.22" disallow="tram rail_urban rail rail_electric rail_fast ship container cable_car subway aircraft wheelchair scooter drone" oneway="0"/>
    <type id="highway.secondary" priority="11" numLanes="1" speed="27.78" disallow="tram rail_urban rail rail_electric rail_fast ship container cable_car subway aircraft wheelchair scooter drone" oneway="0"/>

    <edge id=":114130305_0" function="internal">
        <lane id=":114130305_0_0" index="0" disallow="tram rail_urban rail rail_electric rail_fast ship container cable_car subway aircraft wheelchair scooter drone" speed="27.78" length="7.96" shape="170.31,408.90 172.48,407.97 173.46,406.22 174.42,404.39 176.56,403.22"/>
        <lane id=":114130305_0_1" index="1" disallow="tram rail_urban rail rail_electric rail_fast ship container cable_car subway aircraft wheelchair scooter drone" speed="27.78" length="7.96" shape="170.31,408.90 172.41,408.47 173.75,407.77 175.08,407.00 177.15,406.36"/>
        <lane id=":114130305_0_2" index="2" disallow="tram rail_urban rail rail_electric rail_fast ship container cable_car subway aircraft wheelchair scooter drone" speed="27.78" length="7.96" shape="170.31,408.90 172.53,408.96 174.05,409.35 175.56,409.66 177.75,409.51"/>
        <lane id=":114130305_0_3" index="3" disallow="tram rail_urban rail rail_electric rail_fast ship container cable_car subway aircraft wheelchair scooter drone" speed="27.78" length="7.96" shape="170.58,412.09 172.89,412.14 174.48,412.52 176.06,412.82 178.34,412.65"/>
        <lane id=":114130305_0_4" index="4" disallow="tram rail_urban rail rail_electric rail_fast ship container cable_car subway aircraft wheelchair scooter drone" speed="27.78" length="7.96" shape="170.84,415.28 173.25,415.32 174.91,415.69 176.56,415.98 178.94,415.79"/>
    </edge>
    <edge id=":114130314_0" function="internal">
        <lane id=":114130314_0_0" index="0" disallow="tram rail_urban rail rail_electric rail_fast ship container cable_car subway aircraft wheelchair scooter drone" speed="25.00" length="8.30" shape="283.62,416.77 281.28,417.57 279.93,418.84 278.58,420.13 276.25,420.98"/>
        <lane id=":114130314_0_1" index="1" disallow="tram rail_urban rail rail_electric rail_fast ship container cable_car subway aircraft wheelchair scooter drone" speed="25.00" length="8.30" shape="283.62,416.77 275.76,417.82"/>
    </edge>
    <edge id=":114130314_2" function="internal">
        <lane id=":114130314_2_0" index="0" disallow="tram rail_urban rail rail_electric rail_fast ship container cable_car subway aircraft wheelchair scooter drone" speed="27.78" length="8.61" shape="283.16,413.47 280.81,414.32 279.46,415.63 278.11,416.95 275.76,417.82"/>
        <lane id=":114130314_2_1" index="1" disallow="tram rail_urban rail rail_electric rail_fast ship container cable_car subway aircraft wheelchair scooter drone" speed="27.78" length="8.61" shape="282.70,410.30 280.34,411.15 278.98,412.47 277.62,413.79 275.27,414.66"/>
        <lane id=":114130314_2_2" index="2" disallow="tram rail_urban rail rail_electric rail_fast ship container cable_car subway aircraft wheelchair scooter drone" speed="27.78" length="8.61" shape="282.23,407.14 279.86,407.99 278.50,409.30 277.14,410.62 274.77,411.50"/>
        <lane id=":114130314_2_3" index="3" disallow="tram rail_urban rail rail_electric rail_fast ship container cable_car subway aircraft wheelchair scooter drone" speed="27.78" length="8.61" shape="282.23,407.14 274.28,408.34"/>
    </edge>
    <edge id=":11434839351_0" function="internal">
        <lane id=":11434839351_0_0" index="0" allow="pedestrian bicycle" speed="2.89" length="2.92" width="2.00" shape="81.88,43.69 82.23,42.86 82.68,42.53 83.22,42.68 83.84,43.33"/>
    </edge>
    <edge id=":11434839388_0" function="internal">
        <lane id=":11434839388_0_0" index="0" allow="pedestrian bicycle" speed="2.89" length="2.92" width="2.00" shape="91.32,84.70 90.96,85.53 90.52,85.86 89.98,85.70 89.36,85.05"/>
    </edge>
    <edge id=":11434839438_0" function="internal">
        <lane id=":11434839438_0_0" index="0" allow="pedestrian bicycle" speed="2.89" length="2.92" width="2.00" shape="270.36,177.31 269.60,177.78 269.04,177.80 268.69,177.36 268.55,176.47"/>
    </edge>
    <edge id=":11435304510_0" function="internal">
        <lane id=":11435304510_0_0" index="0" allow="pedestrian bicycle" speed="2.89" length="2.92" width="2.00" shape="496.58,59.41 496.78,60.29 496.63,60.82 496.10,61.02 495.21,60.87"/>
    </edge>
    <edge id=":1446355299_0" function="internal">
        <lane id=":1446355299_0_0" index="0" speed="27.78" length="16.77" shape="319.45,349.29 315.11,332.95"/>
        <lane id=":1446355299_0_1" index="1" speed="27.78" length="16.77" shape="322.52,348.39 318.24,332.31"/>
    </edge>
    <edge id=":1446355299_2" function="internal">
        <lane id=":1446355299_2_0" index="0" disallow="tram rail_urban rail rail_electric rail_fast ship container cable_car subway aircraft wheelchair scooter drone" speed="21.82" length="16.93" shape="314.32,349.66 315.22,346.17 315.82,342.57 315.87,338.34 315.11,332.95"/>
    </edge>
    <edge id=":1446355303_0" function="internal">
        <lane id=":1446355303_0_0" index="0" disallow="tram rail_urban rail rail_electric rail_fast ship container cable_car subway aircraft wheelchair scooter drone" speed="25.00" length="21.24" shape="383.20,367.93 387.12,368.61 391.68,369.28 397.29,369.56 404.32,369.06"/>
    </edge>
    <edge id=":1446355303_1" function="internal">
        <lane id=":1446355303_1_0" index="0" disallow="tram rail_urban rail rail_electric rail_fast ship container cable_car subway aircraft wheelchair scooter drone" speed="27.78" length="21.10" shape="383.34,372.16 404.32,369.06"/>
        <lane id=":1446355303_1_1" index="1" disallow="tram rail_urban rail rail_electric rail_fast ship container cable_car subway aircraft wheelchair scooter drone" speed="27.78" length="21.10" shape="383.85,375.32 404.73,372.23"/>
        <lane id=":1446355303_1_2" index="2" disallow="tram rail_urban rail rail_electric rail_fast ship container cable_car subway aircraft wheelchair scooter drone" speed="27.78" length="21.10" shape="384.37,378.48 405.14,375.41"/>
    </edge>
    <edge id=":1446355305_0" function="internal">
        <lane id=":1446355305_0_0" index="0" disallow="tram rail_urban rail rail_electric rail_fast ship container cable_car subway aircraft wheelchair scooter drone" speed="25.00" length="3.23" shape="272.89,384.99 273.83,384.81 274.47,384.66 275.10,384.47 276.01,384.16"/>
    </edge>
    <edge id=":1446355305_1" function="internal">
        <lane id=":1446355305_1_0" index="0" disallow="tram rail_urban rail rail_electric rail_fast ship container cable_car subway aircraft wheelchair scooter drone" speed="27.78" length="3.34" shape="273.48,388.13 277.01,387.55"/>
        <lane id=":1446355305_1_1" index="1" disallow="tram rail_urban rail rail_electric rail_fast ship container cable_car subway aircraft wheelchair scooter drone" speed="27.78" length="3.34" shape="274.08,391.28 277.45,390.72"/>
        <lane id=":1446355305_1_2" index="2" disallow="tram rail_urban rail rail_electric rail_fast ship container cable_car subway aircraft wheelchair scooter drone" speed="27.78" length="3.34" shape="274.67,394.42 277.89,393.89"/>
        <lane id=":1446355305_1_3" index="3" disallow="tram rail_urban rail rail_electric rail_fast ship container cable_car subway aircraft wheelchair scooter drone" speed="27.78" length="3.34" shape="275.27,397.57 278.33,397.06"/>
    </edge>
    <edge id=":2343526660_0" function="internal">
        <lane id=":2343526660_0_0" index="0" disallow="tram rail_urban rail rail_electric rail_fast ship container cable_car subway aircraft wheelchair scooter drone" speed="22.22" length="0.28" shape="313.25,419.23 312.99,419.15"/>
    </edge>
    <edge id=":2521404171_0" function="internal">
        <lane id=":2521404171_0_0" index="0" disallow="tram rail_urban rail rail_electric rail_fast ship container cable_car subway aircraft wheelchair scooter drone" speed="27.78" length="8.20" shape="421.31,744.60 422.09,746.88 422.99,748.33 423.87,749.78 424.63,752.08"/>
        <lane id=":2521404171_0_1" index="1" disallow="tram rail_urban rail rail_electric rail_fast ship container cable_car subway aircraft wheelchair scooter drone" speed="27.78" length="8.20" shape="418.19,745.32 418.97,747.59 419.86,749.03 420.75,750.47 421.50,752.75"/>
        <lane id=":2521404171_0_2" index="2" disallow="tram rail_urban rail rail_electric rail_fast ship container cable_car subway aircraft wheelchair scooter drone" speed="27.78" length="8.20" shape="418.19,745.32 418.48,747.70 418.30,749.37 418.11,751.05 418.37,753.43"/>
    </edge>
    <edge id=":271878193_0" function="internal">
        <lane id=":271878193_0_0" index="0" disallow="tram rail_urban rail rail_electric rail_fast ship container cable_car subway aircraft wheelchair scooter drone" speed="7.54" length="7.62" shape="334.99,431.77 334.37,430.27 333.23,429.00 331.58,427.94 329.40,427.10"/>
    </edge>
    <edge id=":271878193_1" function="internal">
        <lane id=":271878193_1_0" index="0" disallow="tram rail_urban rail rail_electric rail_fast ship container cable_car subway aircraft wheelchair scooter drone" speed="27.78" length="8.37" shape="334.99,431.77 333.15,423.60"/>
        <lane id=":271878193_1_1" index="1" disallow="tram rail_urban rail rail_electric rail_fast ship container cable_car subway aircraft wheelchair scooter drone" speed="27.78" length="8.37" shape="338.11,431.07 336.27,422.90"/>
    </edge>
    <edge id=":2847672373_0" function="internal">
        <lane id=":2847672373_0_0" index="0" disallow="tram rail_urban rail rail_electric rail_fast ship container cable_car subway aircraft wheelchair scooter drone" speed="25.00" length="3.03" shape="368.38,480.47 368.94,483.45"/>
    </edge>
    <edge id=":2847672373_1" function="internal">
        <lane id=":2847672373_1_0" index="0" disallow="tram rail_urban rail rail_electric rail_fast ship container cable_car subway aircraft wheelchair scooter drone" speed="27.78" length="2.72" shape="365.24,481.19 365.78,483.96"/>
        <lane id=":2847672373_1_1" index="1" disallow="tram rail_urban rail rail_electric rail_fast ship container cable_car subway aircraft wheelchair scooter drone" speed="27.78" length="2.72" shape="362.12,481.90 362.62,484.48"/>
    </edge>
    <edge id=":4665644314_0" function="internal">
        <lane id=":4665644314_0_0" index="0" disallow="tram rail_urban rail rail_electric rail_fast ship container cable_car subway aircraft wheelchair scooter drone" speed="27.78" length="5.00" shape="759.23,334.48 754.30,335.32"/>
        <lane id=":4665644314_0_1" index="1" disallow="tram rail_urban rail rail_electric rail_fast ship container cable_car subway aircraft wheelchair scooter drone" speed="27.78" length="5.00" shape="758.70,331.32 753.76,332.16"/>
    </edge>
    <edge id=":5821280165_0" function="internal">
        <lane id=":5821280165_0_0" index="0" disallow="tram rail_urban rail rail_electric rail_fast ship container cable_car subway aircraft wheelchair scooter drone" speed="9.09" length="7.70" shape="332.59,332.74 333.03,333.98 334.00,335.34 335.52,336.82 337.56,338.42"/>
    </edge>
    <edge id=":5821280165_1" function="internal">
        <lane id=":5821280165_1_0" index="0" speed="27.78" length="8.14" shape="332.59,332.74 334.00,340.69"/>
        <lane id=":5821280165_1_1" index="1" speed="27.78" length="8.14" shape="329.42,333.21 330.85,341.29"/>
    </edge>
    <edge id=":5914179090_0" function="internal">
        <lane id=":5914179090_0_0" index="0" disallow="tram rail_urban rail rail_electric rail_fast ship container cable_car subway aircraft wheelchair scooter drone" speed="27.78" length="4.84" shape="659.08,351.81 654.43,352.76"/>
        <lane id=":5914179090_0_1" index="1" disallow="tram rail_urban rail rail_electric rail_fast ship container cable_car subway aircraft wheelchair scooter drone" speed="27.78" length="4.84" shape="658.51,348.66 653.70,349.65"/>
    </edge>
    <edge id=":5914179091_0" function="internal">
        <lane id=":5914179091_0_0" index="0" disallow="tram rail_urban rail rail_electric rail_fast ship container cable_car subway aircraft wheelchair scooter drone" speed="27.78" length="4.94" shape="651.31,335.40 656.14,334.55"/>
        <lane id=":5914179091_0_1" index="1" disallow="tram rail_urban rail rail_electric rail_fast ship container cable_car subway aircraft wheelchair scooter drone" speed="27.78" length="4.94" shape="651.83,338.55 656.73,337.69"/>
    </edge>
    <edge id=":6410410245_0" function="internal">
        <lane id=":6410410245_0_0" index="0" allow="pedestrian bicycle" speed="2.89" length="2.92" width="2.00" shape="328.78,246.51 328.51,247.38 328.11,247.76 327.56,247.66 326.86,247.09"/>
    </edge>
    <edge id=":6410410250_0" function="internal">
        <lane id=":6410410250_0_0" index="0" disallow="tram rail_urban rail rail_electric rail_fast ship container cable_car subway aircraft wheelchair scooter drone" speed="22.22" length="0.56" shape="353.46,361.76 353.58,361.86 353.68,361.93 353.78,361.98 353.93,362.04"/>
    </edge>
    <edge id=":6712913276_0" function="internal">
        <lane id=":6712913276_0_0" index="0" allow="pedestrian bicycle" speed="2.89" length="2.92" width="2.00" shape="300.59,85.56 299.77,85.20 299.44,84.75 299.60,84.21 300.26,83.59"/>
    </edge>
    <edge id=":6712982693_0" function="internal">
        <lane id=":6712982693_0_0" index="0" allow="pedestrian bicycle" speed="2.89" length="2.92" width="2.00" shape="555.14,193.47 555.59,192.69 556.08,192.41 556.59,192.63 557.14,193.35"/>
    </edge>
    <edge id=":7762540118_0" function="internal">
        <lane id=":7762540118_0_0" index="0" allow="pedestrian bicycle" speed="4.70" length="4.50" width="2.00" shape="782.57,333.63 782.16,332.34 781.52,331.47 780.65,331.04 779.55,331.03"/>
        <lane id=":7762540118_0_1" index="1" allow="pedestrian bicycle" speed="5.84" length="7.29" width="2.00" shape="782.57,333.63 781.89,330.96 781.07,329.11 780.11,328.08 779.02,327.87"/>
    </edge>
    <edge id=":7762540118_2" function="internal">
        <lane id=":7762540118_2_0" index="0" allow="pedestrian bicycle" speed="2.89" length="2.92" width="2.00" shape="782.57,333.63 782.92,332.79 783.36,332.45 783.90,332.60 784.54,333.23"/>
    </edge>
    <edge id=":7762540120_0" function="internal">
        <lane id=":7762540120_0_0" index="0" allow="pedestrian bicycle" speed="2.89" length="2.92" width="2.00" shape="816.25,376.84 817.09,377.17 817.44,377.61 817.30,378.15 816.67,378.80"/>
    </edge>
    <edge id=":8076110108_0" function="internal">
        <lane id=":8076110108_0_0" index="0" disallow="tram rail_urban rail rail_electric rail_fast ship container cable_car subway aircraft wheelchair scooter drone" speed="27.78" length="5.06" shape="668.07,332.55 673.04,331.77"/>
        <lane id=":8076110108_0_1" index="1" disallow="tram rail_urban rail rail_electric rail_fast ship container cable_car subway aircraft wheelchair scooter drone" speed="27.78" length="5.06" shape="668.53,335.72 673.57,334.93"/>
    </edge>
    <edge id=":8076110150_0" function="internal">
        <lane id=":8076110150_0_0" index="0" allow="pedestrian bicycle" speed="5.56" length="5.02" width="2.00" shape="688.56,192.70 683.61,193.53"/>
    </edge>
    <edge id=":8076110150_1" function="internal">
        <lane id=":8076110150_1_0" index="0" allow="pedestrian bicycle" speed="2.89" length="2.92" width="2.00" shape="688.56,192.70 687.74,192.33 687.41,191.88 687.57,191.34 688.23,190.73"/>
    </edge>
    <edge id=":8076110150_2" function="internal">
        <lane id=":8076110150_2_0" index="0" allow="pedestrian bicycle" speed="5.56" length="5.03" width="2.00" shape="683.28,191.55 688.23,190.73"/>
    </edge>
    <edge id=":8076110150_3" function="internal">
        <lane id=":8076110150_3_0" index="0" allow="pedestrian bicycle" speed="2.89" length="2.92" width="2.00" shape="683.28,191.55 684.10,191.92 684.43,192.37 684.26,192.91 683.61,193.53"/>
    </edge>
    <edge id=":8076110211_0" function="internal">
        <lane id=":8076110211_0_0" index="0" allow="pedestrian bicycle" speed="2.89" length="2.92" width="2.00" shape="305.50,114.87 304.98,114.13 304.94,113.58 305.35,113.20 306.23,113.01"/>
    </edge>
    <edge id=":8076110231_0" function="internal">
        <lane id=":8076110231_0_0" index="0" allow="pedestrian bicycle" speed="2.89" length="2.92" width="2.00" shape="286.31,109.66 286.75,108.87 287.23,108.58 287.75,108.79 288.31,109.50"/>
    </edge>
    <edge id=":8076110234_0" function="internal">
        <lane id=":8076110234_0_0" index="0" allow="pedestrian bicycle" speed="2.89" length="2.92" width="2.00" shape="254.68,132.74 254.89,131.86 255.27,131.45 255.82,131.51 256.56,132.03"/>
    </edge>
    <edge id=":8081492055_0" function="internal">
        <lane id=":8081492055_0_0" index="0" allow="pedestrian bicycle" speed="2.89" length="2.92" width="2.00" shape="381.61,235.11 381.32,235.96 380.90,236.33 380.35,236.22 379.68,235.62"/>
    </edge>
    <edge id=":8081492061_0" function="internal">
        <lane id=":8081492061_0_0" index="0" disallow="tram rail_urban rail rail_electric rail_fast ship container cable_car subway aircraft wheelchair scooter drone" speed="27.78" length="8.79" shape="494.13,357.48 496.63,357.66 498.29,358.55 499.95,359.43 502.44,359.57"/>
        <lane id=":8081492061_0_1" index="1" disallow="tram rail_urban rail rail_electric rail_fast ship container cable_car subway aircraft wheelchair scooter drone" speed="27.78" length="8.79" shape="494.54,360.65 497.05,360.83 498.73,361.72 500.40,362.60 502.90,362.74"/>
    </edge>
    <edge id=":8081633236_0" function="internal">
        <lane id=":8081633236_0_0" index="0" disallow="tram rail_urban rail rail_electric rail_fast ship container cable_car subway aircraft wheelchair scooter drone" speed="25.00" length="21.41" shape="417.35,391.64 410.82,393.42 405.73,395.93 401.69,398.62 398.27,400.89"/>
    </edge>
    <edge id=":8081633236_1" function="internal">
        <lane id=":8081633236_1_0" index="0" disallow="tram rail_urban rail rail_electric rail_fast ship container cable_car subway aircraft wheelchair scooter drone" speed="27.78" length="21.18" shape="417.35,391.64 396.73,396.50"/>
        <lane id=":8081633236_1_1" index="1" disallow="tram rail_urban rail rail_electric rail_fast ship container cable_car subway aircraft wheelchair scooter drone" speed="27.78" length="21.18" shape="416.83,388.48 396.23,393.34"/>
        <lane id=":8081633236_1_2" index="2" disallow="tram rail_urban rail rail_electric rail_fast ship container cable_car subway aircraft wheelchair scooter drone" speed="27.78" length="21.18" shape="416.83,388.48 395.73,390.18"/>
    </edge>
    <edge id=":8081633238_0" function="internal">
        <lane id=":8081633238_0_0" index="0" disallow="tram rail_urban rail rail_electric rail_fast ship container cable_car subway aircraft wheelchair scooter drone" speed="27.78" length="8.52" shape="379.39,547.70 379.27,550.11 378.45,551.75 377.67,553.38 377.71,555.75"/>
        <lane id=":8081633238_0_1" index="1" disallow="tram rail_urban rail rail_electric rail_fast ship container cable_car subway aircraft wheelchair scooter drone" speed="27.78" length="8.52" shape="376.23,548.22 376.12,550.68 375.31,552.37 374.54,554.04 374.59,556.47"/>
    </edge>
    <edge id=":8184092195_0" function="internal">
        <lane id=":8184092195_0_0" index="0" disallow="tram rail_urban rail rail_electric rail_fast ship container cable_car subway aircraft wheelchair scooter drone" speed="25.00" length="4.61" shape="193.80,433.86 189.21,434.35"/>
    </edge>
    <edge id=":8184092195_1" function="internal">
        <lane id=":8184092195_1_0" index="0" disallow="tram rail_urban rail rail_electric rail_fast ship container cable_car subway aircraft wheelchair scooter drone" speed="27.78" length="4.29" shape="193.30,430.70 191.98,430.66 191.07,430.26 190.17,429.88 188.85,429.89"/>
        <lane id=":8184092195_1_1" index="1" disallow="tram rail_urban rail rail_electric rail_fast ship container cable_car subway aircraft wheelchair scooter drone" speed="27.78" length="4.29" shape="192.81,427.53 191.55,427.48 190.70,427.07 189.84,426.68 188.59,426.68"/>
        <lane id=":8184092195_1_2" index="2" disallow="tram rail_urban rail rail_electric rail_fast ship container cable_car subway aircraft wheelchair scooter drone" speed="27.78" length="4.29" shape="192.32,424.37 191.13,424.31 190.32,423.89 189.52,423.48 188.33,423.47"/>
        <lane id=":8184092195_1_3" index="3" disallow="tram rail_urban rail rail_electric rail_fast ship container cable_car subway aircraft wheelchair scooter drone" speed="27.78" length="4.29" shape="191.82,421.21 190.70,421.13 189.94,420.70 189.19,420.29 188.08,420.26"/>
    </edge>
    <edge id=":8610962213_0" function="internal">
        <lane id=":8610962213_0_0" index="0" disallow="tram rail_urban rail rail_electric rail_fast ship container cable_car subway aircraft wheelchair scooter drone" speed="22.22" length="0.56" shape="305.63,371.57 305.76,371.46 305.84,371.38 305.91,371.29 305.99,371.15"/>
    </edge>
    <edge id=":9249713837_0" function="internal">
        <lane id=":9249713837_0_0" index="0" allow="pedestrian bicycle" speed="5.56" length="5.20" width="2.00" shape="357.01,150.18 356.64,148.68 356.40,147.65 356.11,146.63 355.59,145.18"/>
    </edge>
    <edge id=":9249713837_1" function="internal">
        <lane id=":9249713837_1_0" index="0" allow="pedestrian bicycle" speed="2.89" length="2.92" width="2.00" shape="357.01,150.18 357.30,149.32 357.72,148.95 358.27,149.07 358.94,149.66"/>
    </edge>
    <edge id=":9249713837_2" function="internal">
        <lane id=":9249713837_2_0" index="0" allow="pedestrian bicycle" speed="5.56" length="5.42" width="2.00" shape="357.46,144.46 358.00,145.97 358.30,147.03 358.56,148.10 358.94,149.66"/>
    </edge>
    <edge id=":9249713837_3" function="internal">
        <lane id=":9249713837_3_0" index="0" allow="pedestrian bicycle" speed="2.89" length="2.92" width="2.00" shape="357.46,144.46 357.26,145.34 356.88,145.75 356.33,145.70 355.59,145.18"/>
    </edge>
    <edge id=":9561477568_0" function="internal">
        <lane id=":9561477568_0_0" index="0" allow="pedestrian bicycle" speed="2.89" length="2.92" width="2.00" shape="763.73,178.40 764.55,178.78 764.88,179.23 764.71,179.76 764.06,180.38"/>
    </edge>
    <edge id=":9561477712_0" function="internal">
        <lane id=":9561477712_0_0" index="0" allow="pedestrian bicycle" speed="5.56" length="5.06" width="2.00" shape="311.35,117.25 306.67,115.34"/>
    </edge>
    <edge id=":9561477712_1" function="internal">
        <lane id=":9561477712_1_0" index="0" allow="pedestrian bicycle" speed="2.89" length="0.79" width="2.00" shape="311.35,117.25 310.91,116.59"/>
    </edge>
    <edge id=":9561477712_4" function="internal">
        <lane id=":9561477712_4_0" index="0" allow="pedestrian bicycle" speed="2.89" length="2.13" width="2.00" shape="310.91,116.59 310.85,116.50 310.81,115.95 311.23,115.58 312.12,115.41"/>
    </edge>
    <edge id=":9561477712_2" function="internal">
        <lane id=":9561477712_2_0" index="0" allow="pedestrian bicycle" speed="5.56" length="5.09" width="2.00" shape="307.41,113.48 312.12,115.41"/>
    </edge>
    <edge id=":9561477712_3" function="internal">
        <lane id=":9561477712_3_0" index="0" allow="pedestrian bicycle" speed="2.89" length="2.41" width="2.00" shape="307.41,113.48 307.92,114.22 307.97,114.78 307.55,115.15 307.16,115.23"/>
    </edge>
    <edge id=":9561477712_5" function="internal">
        <lane id=":9561477712_5_0" index="0" allow="pedestrian bicycle" speed="2.89" length="0.51" width="2.00" shape="307.16,115.23 306.67,115.34"/>
    </edge>
    <edge id=":9882229731_0" function="internal">
        <lane id=":9882229731_0_0" index="0" disallow="tram rail_urban rail rail_electric rail_fast ship container cable_car subway aircraft wheelchair scooter drone" speed="27.78" length="5.00" shape="435.24,800.96 436.30,805.84"/>
        <lane id=":9882229731_0_1" index="1" disallow="tram rail_urban rail rail_electric rail_fast ship container cable_car subway aircraft wheelchair scooter drone" speed="27.78" length="5.00" shape="432.11,801.63 433.18,806.52"/>
        <lane id=":9882229731_0_2" index="2" disallow="tram rail_urban rail rail_electric rail_fast ship container cable_car subway aircraft wheelchair scooter drone" speed="27.78" length="5.00" shape="428.99,802.31 430.05,807.20"/>
    </edge>
    <edge id=":9939488456_0" function="internal">
        <lane id=":9939488456_0_0" index="0" allow="pedestrian bicycle" speed="5.56" length="3.85" width="2.00" shape="494.84,60.52 494.00,59.74 493.37,59.26 492.66,58.94 491.57,58.63"/>
    </edge>
    <edge id=":9939488456_1" function="internal">
        <lane id=":9939488456_1_0" index="0" allow="pedestrian bicycle" speed="2.89" length="0.79" width="2.00" shape="494.84,60.52 494.66,59.75"/>
    </edge>
    <edge id=":9939488456_4" function="internal">
        <lane id=":9939488456_4_0" index="0" allow="pedestrian bicycle" speed="2.89" length="2.13" width="2.00" shape="494.66,59.75 494.63,59.64 494.79,59.11 495.31,58.91 496.20,59.06"/>
    </edge>
    <edge id=":9939488456_2" function="internal">
        <lane id=":9939488456_2_0" index="0" allow="pedestrian bicycle" speed="5.56" length="4.87" width="2.00" shape="492.06,56.69 493.44,57.07 494.35,57.48 495.15,58.08 496.20,59.06"/>
    </edge>
    <edge id=":9939488456_3" function="internal">
        <lane id=":9939488456_3_0" index="0" allow="pedestrian bicycle" speed="2.89" length="2.57" width="2.00" shape="492.06,56.69 492.66,57.36 492.78,57.90 492.42,58.33 491.90,58.51"/>
    </edge>
    <edge id=":9939488456_5" function="internal">
        <lane id=":9939488456_5_0" index="0" allow="pedestrian bicycle" speed="2.89" length="0.35" width="2.00" shape="491.90,58.51 491.57,58.63"/>
    </edge>
    <edge id=":cluster8610962215_8610962216_cluster8610962211_8610962212_8610975624_8610975625_#1more_0" function="internal">
        <lane id=":cluster8610962215_8610962216_cluster8610962211_8610962212_8610975624_8610975625_#1more_0_0" index="0" disallow="tram rail_urban rail rail_electric rail_fast ship container cable_car subway aircraft wheelchair scooter drone" speed="27.78" length="38.70" shape="330.83,413.28 329.49,404.54 328.52,394.09 327.49,383.65 326.01,374.94"/>
        <lane id=":cluster8610962215_8610962216_cluster8610962211_8610962212_8610975624_8610975625_#1more_0_1" index="1" disallow="tram rail_urban rail rail_electric rail_fast ship container cable_car subway aircraft wheelchair scooter drone" speed="27.78" length="38.70" shape="333.95,412.57 332.61,403.81 331.63,393.34 330.59,382.87 329.11,374.15"/>
    </edge>
    <edge id=":cluster8610962215_8610962216_cluster8610962211_8610962212_8610975624_8610975625_#1more_2" function="internal">
        <lane id=":cluster8610962215_8610962216_cluster8610962211_8610962212_8610975624_8610975625_#1more_2_0" index="0" disallow="tram rail_urban rail rail_electric rail_fast ship container cable_car subway aircraft wheelchair scooter drone" speed="12.04" length="34.98" shape="333.95,412.57 334.47,404.64 338.19,395.56 343.92,387.84 350.48,383.99"/>
    </edge>
    <edge id=":cluster8610962215_8610962216_cluster8610962211_8610962212_8610975624_8610975625_#1more_3" function="internal">