<?xml version="1.0" encoding="UTF-8"?>

<!-- generated on 2024-07-10 15:17:52 by Eclipse SUMO netedit Version 1.20.0
<configuration xmlns:xsi="http://www.w3.org/2001/XMLSchema-instance" xsi:noNamespaceSchemaLocation="http://sumo.dlr.de/xsd/neteditConfiguration.xsd">

    <input>
        <sumocfg-file value="/Users/eviat/Desktop/Final_Project/Traffic_Tune_Project/Nets/intersection_1/intersection_1.sumocfg"/>
        <route-files value="/Users/eviat/Desktop/Final_Project/Traffic_Tune_Project/Nets/intersection_1/routes_1/intersection_1_medium_12.rou.xml"/>
        <sumo-net-file value="/Users/eviat/Desktop/Final_Project/Traffic_Tune_Project/Nets/intersection_1/intersection_1.net.xml"/>
    </input>

    <output>
        <output-file value="/Users/eviat/Desktop/Final_Project/Traffic_Tune_Project/Nets/intersection_1/intersection_1.net.xml"/>
        <output.street-names value="true"/>
    </output>

    <processing>
        <geometry.min-radius.fix.railways value="false"/>
        <geometry.max-grade.fix value="false"/>
        <offset.disable-normalization value="true"/>
        <lefthand value="0"/>
    </processing>

    <junctions>
        <no-turnarounds value="true"/>
        <junctions.corner-detail value="5"/>
        <junctions.limit-turn-speed value="5.50"/>
        <rectangular-lane-cut value="0"/>
    </junctions>

    <pedestrian>
        <walkingareas value="0"/>
    </pedestrian>

</configuration>
-->

<net version="1.20" junctionCornerDetail="5" limitTurnSpeed="5.50" xmlns:xsi="http://www.w3.org/2001/XMLSchema-instance" xsi:noNamespaceSchemaLocation="http://sumo.dlr.de/xsd/net_file.xsd">

    <location netOffset="-3876622.47,-3784389.33" convBoundary="0.41,229.76,791.23,817.57" origBoundary="34.824292,32.160440,34.831665,32.166657" projParameter="+proj=merc +a=6378137 +b=6378137 +lat_ts=0.0 +lon_0=0.0 +x_0=0.0 +y_0=0 +k=1.0 +units=m +nadgrids=@null +wktext +no_defs"/>

    <type id="highway.primary" priority="12" numLanes="2" speed="27.78" disallow="tram rail_urban rail rail_electric rail_fast ship container cable_car subway aircraft wheelchair scooter drone" oneway="0"/>
    <type id="highway.primary_link" priority="7" numLanes="1" speed="22.22" disallow="tram rail_urban rail rail_electric rail_fast ship container cable_car subway aircraft wheelchair scooter drone" oneway="0"/>
    <type id="highway.secondary" priority="11" numLanes="1" speed="27.78" disallow="tram rail_urban rail rail_electric rail_fast ship container cable_car subway aircraft wheelchair scooter drone" oneway="0"/>

    <edge id=":114130305_0" function="internal">
        <lane id=":114130305_0_0" index="0" disallow="tram rail_urban rail rail_electric rail_fast ship container cable_car subway aircraft wheelchair scooter drone" speed="27.78" length="7.96" shape="170.31,408.90 172.48,407.97 173.46,406.22 174.42,404.39 176.56,403.22"/>
        <lane id=":114130305_0_1" index="1" disallow="tram rail_urban rail rail_electric rail_fast ship container cable_car subway aircraft wheelchair scooter drone" speed="27.78" length="7.96" shape="170.31,408.90 172.41,408.47 173.75,407.77 175.08,407.00 177.15,406.36"/>
        <lane id=":114130305_0_2" index="2" disallow="tram rail_urban rail rail_electric rail_fast ship container cable_car subway aircraft wheelchair scooter drone" speed="27.78" length="7.96" shape="170.31,408.90 172.53,408.96 174.05,409.35 175.56,409.66 177.75,409.51"/>
        <lane id=":114130305_0_3" index="3" disallow="tram rail_urban rail rail_electric rail_fast ship container cable_car subway aircraft wheelchair scooter drone" speed="27.78" length="7.96" shape="170.58,412.09 172.89,412.14 174.48,412.52 176.06,412.82 178.34,412.65"/>
        <lane id=":114130305_0_4" index="4" disallow="tram rail_urban rail rail_electric rail_fast ship container cable_car subway aircraft wheelchair scooter drone" speed="27.78" length="7.96" shape="170.84,415.28 173.25,415.32 174.91,415.69 176.56,415.98 178.94,415.79"/>
    </edge>
    <edge id=":114130314_0" function="internal">
        <lane id=":114130314_0_0" index="0" disallow="tram rail_urban rail rail_electric rail_fast ship container cable_car subway aircraft wheelchair scooter drone" speed="25.00" length="8.30" shape="283.62,416.77 281.28,417.57 279.93,418.84 278.58,420.13 276.25,420.98"/>
        <lane id=":114130314_0_1" index="1" disallow="tram rail_urban rail rail_electric rail_fast ship container cable_car subway aircraft wheelchair scooter drone" speed="25.00" length="8.30" shape="283.62,416.77 275.76,417.82"/>
    </edge>
    <edge id=":114130314_2" function="internal">
        <lane id=":114130314_2_0" index="0" disallow="tram rail_urban rail rail_electric rail_fast ship container cable_car subway aircraft wheelchair scooter drone" speed="27.78" length="8.61" shape="283.16,413.47 280.81,414.32 279.46,415.63 278.11,416.95 275.76,417.82"/>
        <lane id=":114130314_2_1" index="1" disallow="tram rail_urban rail rail_electric rail_fast ship container cable_car subway aircraft wheelchair scooter drone" speed="27.78" length="8.61" shape="282.70,410.30 280.34,411.15 278.98,412.47 277.62,413.79 275.27,414.66"/>
        <lane id=":114130314_2_2" index="2" disallow="tram rail_urban rail rail_electric rail_fast ship container cable_car subway aircraft wheelchair scooter drone" speed="27.78" length="8.61" shape="282.23,407.14 279.86,407.99 278.50,409.30 277.14,410.62 274.77,411.50"/>
        <lane id=":114130314_2_3" index="3" disallow="tram rail_urban rail rail_electric rail_fast ship container cable_car subway aircraft wheelchair scooter drone" speed="27.78" length="8.61" shape="282.23,407.14 274.28,408.34"/>
    </edge>
    <edge id=":1446355299_0" function="internal">
        <lane id=":1446355299_0_0" index="0" speed="27.78" length="16.77" shape="319.45,349.29 315.11,332.95"/>
        <lane id=":1446355299_0_1" index="1" speed="27.78" length="16.77" shape="322.52,348.39 318.24,332.31"/>
    </edge>
    <edge id=":1446355299_2" function="internal">
        <lane id=":1446355299_2_0" index="0" disallow="tram rail_urban rail rail_electric rail_fast ship container cable_car subway aircraft wheelchair scooter drone" speed="21.82" length="16.93" shape="314.32,349.66 315.22,346.17 315.82,342.57 315.87,338.34 315.11,332.95"/>
    </edge>
    <edge id=":1446355303_0" function="internal">
        <lane id=":1446355303_0_0" index="0" disallow="tram rail_urban rail rail_electric rail_fast ship container cable_car subway aircraft wheelchair scooter drone" speed="25.00" length="21.24" shape="383.20,367.93 387.12,368.61 391.68,369.28 397.29,369.56 404.32,369.06"/>
    </edge>
    <edge id=":1446355303_1" function="internal">
        <lane id=":1446355303_1_0" index="0" disallow="tram rail_urban rail rail_electric rail_fast ship container cable_car subway aircraft wheelchair scooter drone" speed="27.78" length="21.10" shape="383.34,372.16 404.32,369.06"/>
        <lane id=":1446355303_1_1" index="1" disallow="tram rail_urban rail rail_electric rail_fast ship container cable_car subway aircraft wheelchair scooter drone" speed="27.78" length="21.10" shape="383.85,375.32 404.73,372.23"/>
        <lane id=":1446355303_1_2" index="2" disallow="tram rail_urban rail rail_electric rail_fast ship container cable_car subway aircraft wheelchair scooter drone" speed="27.78" length="21.10" shape="384.37,378.48 405.14,375.41"/>
    </edge>
    <edge id=":1446355305_0" function="internal">
        <lane id=":1446355305_0_0" index="0" disallow="tram rail_urban rail rail_electric rail_fast ship container cable_car subway aircraft wheelchair scooter drone" speed="25.00" length="3.23" shape="272.89,384.99 273.83,384.81 274.47,384.66 275.10,384.47 276.01,384.16"/>
    </edge>
    <edge id=":1446355305_1" function="internal">
        <lane id=":1446355305_1_0" index="0" disallow="tram rail_urban rail rail_electric rail_fast ship container cable_car subway aircraft wheelchair scooter drone" speed="27.78" length="3.34" shape="273.48,388.13 277.01,387.55"/>
        <lane id=":1446355305_1_1" index="1" disallow="tram rail_urban rail rail_electric rail_fast ship container cable_car subway aircraft wheelchair scooter drone" speed="27.78" length="3.34" shape="274.08,391.28 277.45,390.72"/>
        <lane id=":1446355305_1_2" index="2" disallow="tram rail_urban rail rail_electric rail_fast ship container cable_car subway aircraft wheelchair scooter drone" speed="27.78" length="3.34" shape="274.67,394.42 277.89,393.89"/>
        <lane id=":1446355305_1_3" index="3" disallow="tram rail_urban rail rail_electric rail_fast ship container cable_car subway aircraft wheelchair scooter drone" speed="27.78" length="3.34" shape="275.27,397.57 278.33,397.06"/>
    </edge>
    <edge id=":2521404171_0" function="internal">
        <lane id=":2521404171_0_0" index="0" disallow="tram rail_urban rail rail_electric rail_fast ship container cable_car subway aircraft wheelchair scooter drone" speed="27.78" length="8.20" shape="421.31,744.60 422.09,746.88 422.99,748.33 423.87,749.78 424.63,752.08"/>
        <lane id=":2521404171_0_1" index="1" disallow="tram rail_urban rail rail_electric rail_fast ship container cable_car subway aircraft wheelchair scooter drone" speed="27.78" length="8.20" shape="418.19,745.32 418.97,747.59 419.86,749.03 420.75,750.47 421.50,752.75"/>
        <lane id=":2521404171_0_2" index="2" disallow="tram rail_urban rail rail_electric rail_fast ship container cable_car subway aircraft wheelchair scooter drone" speed="27.78" length="8.20" shape="418.19,745.32 418.48,747.70 418.30,749.37 418.11,751.05 418.37,753.43"/>
    </edge>
    <edge id=":271878193_0" function="internal">
        <lane id=":271878193_0_0" index="0" disallow="tram rail_urban rail rail_electric rail_fast ship container cable_car subway aircraft wheelchair scooter drone" speed="7.54" length="7.62" shape="334.99,431.77 334.37,430.27 333.23,429.00 331.58,427.94 329.40,427.10"/>
    </edge>
    <edge id=":271878193_1" function="internal">
        <lane id=":271878193_1_0" index="0" disallow="tram rail_urban rail rail_electric rail_fast ship container cable_car subway aircraft wheelchair scooter drone" speed="27.78" length="8.37" shape="334.99,431.77 333.15,423.60"/>
        <lane id=":271878193_1_1" index="1" disallow="tram rail_urban rail rail_electric rail_fast ship container cable_car subway aircraft wheelchair scooter drone" speed="27.78" length="8.37" shape="338.11,431.07 336.27,422.90"/>
    </edge>
    <edge id=":2847672373_0" function="internal">
        <lane id=":2847672373_0_0" index="0" disallow="tram rail_urban rail rail_electric rail_fast ship container cable_car subway aircraft wheelchair scooter drone" speed="25.00" length="3.03" shape="368.38,480.47 368.94,483.45"/>
    </edge>
    <edge id=":2847672373_1" function="internal">
        <lane id=":2847672373_1_0" index="0" disallow="tram rail_urban rail rail_electric rail_fast ship container cable_car subway aircraft wheelchair scooter drone" speed="27.78" length="2.72" shape="365.24,481.19 365.78,483.96"/>
        <lane id=":2847672373_1_1" index="1" disallow="tram rail_urban rail rail_electric rail_fast ship container cable_car subway aircraft wheelchair scooter drone" speed="27.78" length="2.72" shape="362.12,481.90 362.62,484.48"/>
    </edge>
    <edge id=":4665644314_0" function="internal">
        <lane id=":4665644314_0_0" index="0" disallow="tram rail_urban rail rail_electric rail_fast ship container cable_car subway aircraft wheelchair scooter drone" speed="27.78" length="0.10" shape="756.59,334.93 756.59,334.93"/>
        <lane id=":4665644314_0_1" index="1" disallow="tram rail_urban rail rail_electric rail_fast ship container cable_car subway aircraft wheelchair scooter drone" speed="27.78" length="0.10" shape="756.05,331.77 756.05,331.77"/>
    </edge>
    <edge id=":5821280165_0" function="internal">
        <lane id=":5821280165_0_0" index="0" disallow="tram rail_urban rail rail_electric rail_fast ship container cable_car subway aircraft wheelchair scooter drone" speed="9.09" length="7.70" shape="332.59,332.74 333.03,333.98 334.00,335.34 335.52,336.82 337.56,338.42"/>
    </edge>
    <edge id=":5821280165_1" function="internal">
        <lane id=":5821280165_1_0" index="0" speed="27.78" length="8.14" shape="332.59,332.74 334.00,340.69"/>
        <lane id=":5821280165_1_1" index="1" speed="27.78" length="8.14" shape="329.42,333.21 330.85,341.29"/>
    </edge>
    <edge id=":5914179090_0" function="internal">
        <lane id=":5914179090_0_0" index="0" disallow="tram rail_urban rail rail_electric rail_fast ship container cable_car subway aircraft wheelchair scooter drone" speed="27.78" length="0.10" shape="656.54,352.26 656.62,352.25"/>
        <lane id=":5914179090_0_1" index="1" disallow="tram rail_urban rail rail_electric rail_fast ship container cable_car subway aircraft wheelchair scooter drone" speed="27.78" length="0.10" shape="655.98,349.12 655.90,349.13"/>
    </edge>
    <edge id=":5914179091_0" function="internal">
        <lane id=":5914179091_0_0" index="0" disallow="tram rail_urban rail rail_electric rail_fast ship container cable_car subway aircraft wheelchair scooter drone" speed="27.78" length="0.28" shape="653.67,335.00 653.92,334.96"/>
        <lane id=":5914179091_0_1" index="1" disallow="tram rail_urban rail rail_electric rail_fast ship container cable_car subway aircraft wheelchair scooter drone" speed="27.78" length="0.28" shape="654.19,338.16 654.50,338.11"/>
    </edge>
    <edge id=":8076110108_0" function="internal">
        <lane id=":8076110108_0_0" index="0" disallow="tram rail_urban rail rail_electric rail_fast ship container cable_car subway aircraft wheelchair scooter drone" speed="27.78" length="0.28" shape="670.42,332.21 670.66,332.17"/>
        <lane id=":8076110108_0_1" index="1" disallow="tram rail_urban rail rail_electric rail_fast ship container cable_car subway aircraft wheelchair scooter drone" speed="27.78" length="0.28" shape="670.88,335.37 671.19,335.33"/>
    </edge>
    <edge id=":8081492061_0" function="internal">
        <lane id=":8081492061_0_0" index="0" disallow="tram rail_urban rail rail_electric rail_fast ship container cable_car subway aircraft wheelchair scooter drone" speed="27.78" length="8.79" shape="494.13,357.48 496.63,357.66 498.29,358.55 499.95,359.43 502.44,359.57"/>
        <lane id=":8081492061_0_1" index="1" disallow="tram rail_urban rail rail_electric rail_fast ship container cable_car subway aircraft wheelchair scooter drone" speed="27.78" length="8.79" shape="494.54,360.65 497.05,360.83 498.73,361.72 500.40,362.60 502.90,362.74"/>
    </edge>
    <edge id=":8081633236_0" function="internal">
        <lane id=":8081633236_0_0" index="0" disallow="tram rail_urban rail rail_electric rail_fast ship container cable_car subway aircraft wheelchair scooter drone" speed="25.00" length="57.31" shape="466.58,383.72 454.42,386.45 436.93,390.95 420.39,395.38 411.06,397.90"/>
    </edge>
    <edge id=":8081633236_1" function="internal">
        <lane id=":8081633236_1_0" index="0" disallow="tram rail_urban rail rail_electric rail_fast ship container cable_car subway aircraft wheelchair scooter drone" speed="27.78" length="57.25" shape="466.58,383.72 410.32,394.39"/>
        <lane id=":8081633236_1_1" index="1" disallow="tram rail_urban rail rail_electric rail_fast ship container cable_car subway aircraft wheelchair scooter drone" speed="27.78" length="57.25" shape="466.06,380.56 409.82,391.23"/>
        <lane id=":8081633236_1_2" index="2" disallow="tram rail_urban rail rail_electric rail_fast ship container cable_car subway aircraft wheelchair scooter drone" speed="27.78" length="57.25" shape="466.06,380.56 409.31,388.07"/>
    </edge>
    <edge id=":8081633238_0" function="internal">
        <lane id=":8081633238_0_0" index="0" disallow="tram rail_urban rail rail_electric rail_fast ship container cable_car subway aircraft wheelchair scooter drone" speed="27.78" length="8.56" shape="379.38,547.69 379.27,550.11 378.45,551.75 377.68,553.39 377.72,555.78"/>
        <lane id=":8081633238_0_1" index="1" disallow="tram rail_urban rail rail_electric rail_fast ship container cable_car subway aircraft wheelchair scooter drone" speed="27.78" length="8.56" shape="376.23,548.20 376.12,550.68 375.31,552.37 374.55,554.05 374.60,556.50"/>
    </edge>
    <edge id=":8184092195_0" function="internal">
        <lane id=":8184092195_0_0" index="0" disallow="tram rail_urban rail rail_electric rail_fast ship container cable_car subway aircraft wheelchair scooter drone" speed="25.00" length="2.98" shape="194.16,433.80 191.21,434.30"/>
    </edge>
    <edge id=":8184092195_1" function="internal">
        <lane id=":8184092195_1_0" index="0" disallow="tram rail_urban rail rail_electric rail_fast ship container cable_car subway aircraft wheelchair scooter drone" speed="27.78" length="3.01" shape="193.66,430.64 190.73,431.23"/>
        <lane id=":8184092195_1_1" index="1" disallow="tram rail_urban rail rail_electric rail_fast ship container cable_car subway aircraft wheelchair scooter drone" speed="27.78" length="3.01" shape="193.17,427.48 190.22,428.07"/>
        <lane id=":8184092195_1_2" index="2" disallow="tram rail_urban rail rail_electric rail_fast ship container cable_car subway aircraft wheelchair scooter drone" speed="27.78" length="3.01" shape="192.67,424.32 189.72,424.91"/>
        <lane id=":8184092195_1_3" index="3" disallow="tram rail_urban rail rail_electric rail_fast ship container cable_car subway aircraft wheelchair scooter drone" speed="27.78" length="3.01" shape="192.18,421.16 189.22,421.75"/>
    </edge>
    <edge id=":cluster8610962215_8610962216_cluster8610962211_8610962212_8610975624_8610975625_#1more_0" function="internal">
        <lane id=":cluster8610962215_8610962216_cluster8610962211_8610962212_8610975624_8610975625_#1more_0_0" index="0" disallow="tram rail_urban rail rail_electric rail_fast ship container cable_car subway aircraft wheelchair scooter drone" speed="27.78" length="38.70" shape="330.83,413.28 329.49,404.54 328.52,394.09 327.49,383.65 326.01,374.94"/>
        <lane id=":cluster8610962215_8610962216_cluster8610962211_8610962212_8610975624_8610975625_#1more_0_1" index="1" disallow="tram rail_urban rail rail_electric rail_fast ship container cable_car subway aircraft wheelchair scooter drone" speed="27.78" length="38.70" shape="333.95,412.57 332.61,403.81 331.63,393.34 330.59,382.87 329.11,374.15"/>
    </edge>
    <edge id=":cluster8610962215_8610962216_cluster8610962211_8610962212_8610975624_8610975625_#1more_2" function="internal">
        <lane id=":cluster8610962215_8610962216_cluster8610962211_8610962212_8610975624_8610975625_#1more_2_0" index="0" disallow="tram rail_urban rail rail_electric rail_fast ship container cable_car subway aircraft wheelchair scooter drone" speed="12.04" length="34.98" shape="333.95,412.57 334.47,404.64 338.19,395.56 343.92,387.84 350.48,383.99"/>
    </edge>
    <edge id=":cluster8610962215_8610962216_cluster8610962211_8610962212_8610975624_8610975625_#1more_3" function="internal">
        <lane id=":cluster8610962215_8610962216_cluster8610962211_8610962212_8610975624_8610975625_#1more_3_0" index="0" disallow="tram rail_urban rail rail_electric rail_fast ship container cable_car subway aircraft wheelchair scooter drone" speed="27.78" length="29.97" shape="353.53,402.71 323.90,407.48"/>
        <lane id=":cluster8610962215_8610962216_cluster8610962211_8610962212_8610975624_8610975625_#1more_3_1" index="1" disallow="tram rail_urban rail rail_electric rail_fast ship container cable_car subway aircraft wheelchair scooter drone" speed="27.78" length="29.97" shape="353.02,399.55 323.43,404.31"/>
        <lane id=":cluster8610962215_8610962216_cluster8610962211_8610962212_8610975624_8610975625_#1more_3_2" index="2" disallow="tram rail_urban rail rail_electric rail_fast ship container cable_car subway aircraft wheelchair scooter drone" speed="27.78" length="29.97" shape="352.50,396.39 322.96,401.14"/>
    </edge>
    <edge id=":cluster8610962215_8610962216_cluster8610962211_8610962212_8610975624_8610975625_#1more_6" function="internal">
        <lane id=":cluster8610962215_8610962216_cluster8610962211_8610962212_8610975624_8610975625_#1more_6_0" index="0" disallow="tram rail_urban rail rail_electric rail_fast ship container cable_car subway aircraft wheelchair scooter drone" speed="12.57" length="33.61" shape="352.50,396.39 346.17,394.56 338.97,388.88 332.69,381.40 329.11,374.15"/>
    </edge>
    <edge id=":cluster8610962215_8610962216_cluster8610962211_8610962212_8610975624_8610975625_#1more_7" function="internal">
        <lane id=":cluster8610962215_8610962216_cluster8610962211_8610962212_8610975624_8610975625_#1more_7_0" index="0" disallow="tram rail_urban rail rail_electric rail_fast ship container cable_car subway aircraft wheelchair scooter drone" speed="27.78" length="38.78" shape="339.68,371.47 348.73,409.18"/>
    </edge>
    <edge id=":cluster8610962215_8610962216_cluster8610962211_8610962212_8610975624_8610975625_#1more_8" function="internal">
        <lane id=":cluster8610962215_8610962216_cluster8610962211_8610962212_8610975624_8610975625_#1more_8_0" index="0" disallow="tram rail_urban rail rail_electric rail_fast ship container cable_car subway aircraft wheelchair scooter drone" speed="12.69" length="38.21" shape="339.68,371.47 338.91,380.13 335.09,390.74 329.51,399.92 323.43,404.31"/>
        <lane id=":cluster8610962215_8610962216_cluster8610962211_8610962212_8610975624_8610975625_#1more_8_1" index="1" disallow="tram rail_urban rail rail_electric rail_fast ship container cable_car subway aircraft wheelchair scooter drone" speed="11.93" length="33.62" shape="336.57,372.26 336.18,380.31 333.23,389.56 328.54,397.39 322.96,401.14"/>
    </edge>
    <edge id=":cluster8610962215_8610962216_cluster8610962211_8610962212_8610975624_8610975625_#1more_10" function="internal">
        <lane id=":cluster8610962215_8610962216_cluster8610962211_8610962212_8610975624_8610975625_#1more_10_0" index="0" disallow="tram rail_urban rail rail_electric rail_fast ship container cable_car subway aircraft wheelchair scooter drone" speed="27.78" length="29.65" shape="320.08,381.57 349.46,377.67"/>
        <lane id=":cluster8610962215_8610962216_cluster8610962211_8610962212_8610975624_8610975625_#1more_10_1" index="1" disallow="tram rail_urban rail rail_electric rail_fast ship container cable_car subway aircraft wheelchair scooter drone" speed="27.78" length="29.65" shape="320.55,384.73 349.97,380.83"/>
    </edge>
    <edge id=":cluster8610962215_8610962216_cluster8610962211_8610962212_8610975624_8610975625_#1more_12" function="internal">
        <lane id=":cluster8610962215_8610962216_cluster8610962211_8610962212_8610975624_8610975625_#1more_12_0" index="0" disallow="tram rail_urban rail rail_electric rail_fast ship container cable_car subway aircraft wheelchair scooter drone" speed="12.99" length="36.49" shape="321.02,387.90 328.63,389.51 337.29,394.85 344.75,402.03 348.73,409.18"/>
        <lane id=":cluster8610962215_8610962216_cluster8610962211_8610962212_8610975624_8610975625_#1more_12_1" index="1" disallow="tram rail_urban rail rail_electric rail_fast ship container cable_car subway aircraft wheelchair scooter drone" speed="12.24" length="32.29" shape="321.48,391.07 328.50,392.30 335.94,396.80 342.18,403.13 345.61,409.89"/>
    </edge>

    <edge id="12526870#0" from="7762540118" to="4665644314" name="הרב קוק" priority="12" type="highway.primary" spreadType="center">
        <lane id="12526870#0_0" index="0" disallow="tram rail_urban rail rail_electric rail_fast ship container cable_car subway aircraft wheelchair scooter drone" speed="27.78" length="26.70" shape="782.91,330.46 756.59,334.93">
            <param key="origId" value="12526870"/>
        </lane>
        <lane id="12526870#0_1" index="1" disallow="tram rail_urban rail rail_electric rail_fast ship container cable_car subway aircraft wheelchair scooter drone" speed="27.78" length="26.70" shape="782.37,327.30 756.05,331.77">
            <param key="origId" value="12526870"/>
        </lane>
        <param key="ref" value="541"/>
    </edge>
    <edge id="12526870#1" from="4665644314" to="5914179090" name="הרב קוק" priority="12" type="highway.primary" spreadType="center" shape="756.32,333.35 689.89,344.63 656.26,350.69">
        <lane id="12526870#1_0" index="0" disallow="tram rail_urban rail rail_electric rail_fast ship container cable_car subway aircraft wheelchair scooter drone" speed="27.78" length="101.55" shape="756.59,334.93 690.17,346.21 656.54,352.26">
            <param key="origId" value="12526870"/>
        </lane>
        <lane id="12526870#1_1" index="1" disallow="tram rail_urban rail rail_electric rail_fast ship container cable_car subway aircraft wheelchair scooter drone" speed="27.78" length="101.55" shape="756.05,331.77 689.61,343.05 655.98,349.12">
            <param key="origId" value="12526870"/>
        </lane>
        <param key="ref" value="541"/>
    </edge>
    <edge id="12526870#2" from="5914179090" to="8081633236" name="הרב קוק" priority="12" type="highway.primary" spreadType="center" shape="656.26,350.69 650.54,352.03 614.77,357.56 455.94,383.86">
        <lane id="12526870#2_0" index="0" disallow="tram rail_urban rail rail_electric rail_fast ship container cable_car subway aircraft wheelchair scooter drone" speed="27.78" length="192.54" shape="656.62,352.25 650.85,353.60 615.02,359.14 466.58,383.72">
            <param key="origId" value="12526870"/>
        </lane>
        <lane id="12526870#2_1" index="1" disallow="tram rail_urban rail rail_electric rail_fast ship container cable_car subway aircraft wheelchair scooter drone" speed="27.78" length="192.54" shape="655.90,349.13 650.23,350.46 614.52,355.98 466.06,380.56">
            <param key="origId" value="12526870"/>
        </lane>
        <param key="ref" value="541"/>
    </edge>
    <edge id="12526870#3" from="8081633236" to="cluster8610962215_8610962216_cluster8610962211_8610962212_8610975624_8610975625_#1more" name="הרב קוק" priority="12" type="highway.primary" spreadType="center" shape="455.94,383.86 399.83,392.82 352.75,399.59">
        <lane id="12526870#3_0" index="0" disallow="tram rail_urban rail rail_electric rail_fast ship container cable_car subway aircraft wheelchair scooter drone" speed="27.78" length="57.41" shape="410.32,394.39 400.31,395.98 353.53,402.71">
            <param key="origId" value="12526870"/>
        </lane>
        <lane id="12526870#3_1" index="1" disallow="tram rail_urban rail rail_electric rail_fast ship container cable_car subway aircraft wheelchair scooter drone" speed="27.78" length="57.41" shape="409.82,391.23 399.83,392.82 353.02,399.55">
            <param key="origId" value="12526870"/>
        </lane>
        <lane id="12526870#3_2" index="2" disallow="tram rail_urban rail rail_electric rail_fast ship container cable_car subway aircraft wheelchair scooter drone" speed="27.78" length="57.41" shape="409.31,388.07 399.35,389.66 352.50,396.39">
            <param key="origId" value="12526870"/>
        </lane>
        <param key="ref" value="541"/>
    </edge>
    <edge id="215834190" from="8942030174" to="114130305" name="שדרות שבעת הכוכבים" priority="12" type="highway.primary" spreadType="center" shape="0.41,396.14 16.94,401.52 33.43,405.91 52.32,409.84 71.65,412.64 97.54,414.46 126.49,415.05 147.29,414.04 174.38,411.77">
        <lane id="215834190_0" index="0" disallow="tram rail_urban rail rail_electric rail_fast ship container cable_car subway aircraft wheelchair scooter drone" speed="27.78" length="172.38" shape="1.40,393.10 17.85,398.45 34.17,402.80 52.88,406.69 71.99,409.46 97.68,411.26 126.44,411.85 147.08,410.85 170.31,408.90">
            <param key="origId" value="215834190"/>
        </lane>
        <lane id="215834190_1" index="1" disallow="tram rail_urban rail rail_electric rail_fast ship container cable_car subway aircraft wheelchair scooter drone" speed="27.78" length="172.38" shape="0.41,396.14 16.94,401.52 33.43,405.91 52.32,409.84 71.65,412.64 97.54,414.46 126.49,415.05 147.29,414.04 170.58,412.09">
            <param key="origId" value="215834190"/>
        </lane>
        <lane id="215834190_2" index="2" disallow="tram rail_urban rail rail_electric rail_fast ship container cable_car subway aircraft wheelchair scooter drone" speed="27.78" length="172.38" shape="-0.58,399.18 16.03,404.59 32.69,409.02 51.76,412.99 71.31,415.82 97.40,417.66 126.54,418.25 147.50,417.23 170.84,415.28">
            <param key="origId" value="215834190"/>
        </lane>
        <param key="ref" value="541"/>
    </edge>
    <edge id="225589910#2" from="cluster8610962215_8610962216_cluster8610962211_8610962212_8610975624_8610975625_#1more" to="2847672373" name="ז&amp;apos;בוטינסקי" priority="11" type="highway.secondary" spreadType="center" shape="346.94,408.55 363.98,482.86">
        <lane id="225589910#2_0" index="0" disallow="tram rail_urban rail rail_electric rail_fast ship container cable_car subway aircraft wheelchair scooter drone" speed="27.78" length="73.88" shape="348.73,409.18 365.24,481.19">
            <param key="origId" value="225589910"/>
        </lane>
        <lane id="225589910#2_1" index="1" disallow="tram rail_urban rail rail_electric rail_fast ship container cable_car subway aircraft wheelchair scooter drone" speed="27.78" length="73.88" shape="345.61,409.89 362.12,481.90">
            <param key="origId" value="225589910"/>
        </lane>
    </edge>
    <edge id="225589910#3" from="2847672373" to="8081633238" name="ז&amp;apos;בוטינסקי" priority="11" type="highway.secondary" spreadType="center" shape="365.56,482.61 376.85,552.04">
        <lane id="225589910#3_0" index="0" disallow="tram rail_urban rail rail_electric rail_fast ship container cable_car subway aircraft wheelchair scooter drone" speed="27.78" length="65.08" acceleration="1" shape="368.94,483.45 379.38,547.69">