<routes xmlns:xsi="http://www.w3.org/2001/XMLSchema-instance" xsi:noNamespaceSchemaLocation="http://sumo.dlr.de/xsd/routes_file.xsd">
    
    <route id="E_N_5" edges="740524787#2 198505048#0 24862060#0 24862060#1 230054301 230054297" />
    <route id="E_S_5_6" edges="740524787#2 198505048#0 198505048#1 5066150 321331231 215840480" />
    <route id="E_W_5_6" edges="740524787#2 198505048#0 198505048#1 5066150 685510793#0 685510793#0.16 685510793#1 139252066" />
    <route id="N_E_6_5" edges="413008146#0 413008146#1 1092819228#0 1092819228#0.143 139252069 1279598614#1 740504608 740504607" />
    <route id="N_N_6_5" edges="413008146#1 1092819228#0 1092819228#0.143 139252069 180166262#0 230054301" />
    <route id="N_S_6" edges="413008146#0 413008146#1 1092819228#0 1092819228#0.143 321331231 215840480" />
    <route id="N_W_6" edges="413008146#0 413008146#1 1092819228#0 E0 685510793#0.16 685510793#1 139252066" />
    <route id="S_E_5" edges="172824408-AddedOffRampEdge 172824413#0 172824413#0.89 740504608 740504607" />
    <route id="S_E_5_2" edges="172824408-AddedOffRampEdge 172824413#0 172824413#0.89 740504608 740504607" />
    <route id="S_N_5" edges="172824408-AddedOffRampEdge 503584906#0 180166262#0 230054301" />
    <route id="S_S_5_6" edges="25451027 172824408 172824408-AddedOffRampEdge 503584906#0 5066150 321331231 215840480" />
    <route id="S_W_5_6" edges="172824408-AddedOffRampEdge 503584906#0 5066150 685510793#0 685510793#0.16 685510793#1 139252066" />
    <route id="W_E_6_5" edges="171253204#1 685510783#0 139252069 1279598614#1 740504608 740504607" />
    <route id="W_N_6_5" edges="171253204#1 685510783#0 139252069 180166262#0 230054301" />
    <route id="W_S_6" edges="171253204#1 685510783#0 321331231" />
<flow id="f_0" begin="0.00" route="E_N_5" end="3600.00" vehsPerHour="1581" /><!--
--><flow id="f_1" begin="0.00" route="E_S_5_6" end="3600.00" vehsPerHour="1281" /><!--
--><flow id="f_2" begin="0.00" route="E_W_5_6" end="3600.00" vehsPerHour="1300" /><!--
--><flow id="f_3" begin="0.00" route="N_E_6_5" end="3600.00" vehsPerHour="1166" /><!--
--><flow id="f_4" begin="0.00" route="N_N_6_5" end="3600.00" vehsPerHour="1487" /><!--
--><flow id="f_5" begin="0.00" route="N_S_6" end="3600.00" vehsPerHour="1023" /><!--
--><flow id="f_6" begin="0.00" route="N_W_6" end="3600.00" vehsPerHour="1342" /><!--
--><flow id="f_7" begin="0.00" route="S_E_5" end="3600.00" vehsPerHour="1292" /><!--
--><flow id="f_8" begin="0.00" route="S_E_5_2" end="3600.00" vehsPerHour="1595" /><!--
--><flow id="f_9" begin="0.00" route="S_N_5" end="3600.00" vehsPerHour="1024" /><!--
--><flow id="f_10" begin="0.00" route="S_S_5_6" end="3600.00" vehsPerHour="1720" /><!--
--><flow id="f_11" begin="0.00" route="S_W_5_6" end="3600.00" vehsPerHour="1135" /><!--
--><flow id="f_12" begin="0.00" route="W_E_6_5" end="3600.00" vehsPerHour="1617" /><!--
--><flow id="f_13" begin="0.00" route="W_N_6_5" end="3600.00" vehsPerHour="1292" /><!--
--><flow id="f_14" begin="0.00" route="W_S_6" end="3600.00" vehsPerHour="1704" /><!--
--></routes>