<?xml version="1.0" encoding="UTF-8"?>

<!-- generated on 2024-07-01 09:48:52 by Eclipse SUMO netedit Version 1.20.0
<configuration xmlns:xsi="http://www.w3.org/2001/XMLSchema-instance" xsi:noNamespaceSchemaLocation="http://sumo.dlr.de/xsd/neteditConfiguration.xsd">

    <input>
        <sumocfg-file value="/Users/eviat/PycharmProjects/Traffic_Tune_Project/Nets/intersection_7/intersection_7.sumocfg"/>
        <route-files value="/Users/eviat/PycharmProjects/Traffic_Tune_Project/Nets/intersection_7/routes_7/full_net_random_easy_1.rou.xml"/>
        <sumo-net-file value="/Users/eviat/PycharmProjects/Traffic_Tune_Project/Nets/intersection_7/intersection_7.net.xml"/>
    </input>

    <output>
        <output-file value="/Users/eviat/PycharmProjects/Traffic_Tune_Project/Nets/intersection_7/intersection_7.net.xml"/>
        <output.street-names value="true"/>
    </output>

    <processing>
        <geometry.min-radius.fix.railways value="false"/>
        <geometry.max-grade.fix value="false"/>
        <offset.disable-normalization value="true"/>
        <lefthand value="0"/>
    </processing>

    <junctions>
        <no-turnarounds value="true"/>
        <junctions.corner-detail value="5"/>
        <junctions.limit-turn-speed value="5.50"/>
        <rectangular-lane-cut value="0"/>
    </junctions>

    <pedestrian>
        <walkingareas value="0"/>
    </pedestrian>

</configuration>
-->

<net version="1.20" junctionCornerDetail="5" limitTurnSpeed="5.50" xmlns:xsi="http://www.w3.org/2001/XMLSchema-instance" xsi:noNamespaceSchemaLocation="http://sumo.dlr.de/xsd/net_file.xsd">

    <location netOffset="-3874803.49,-3784007.67" convBoundary="126.04,10.94,2575.30,1199.23" origBoundary="34.807952,32.157537,34.831207,32.167155" projParameter="+proj=merc +a=6378137 +b=6378137 +lat_ts=0.0 +lon_0=0.0 +x_0=0.0 +y_0=0 +k=1.0 +units=m +nadgrids=@null +wktext +no_defs"/>

    <type id="highway.motorway_link" priority="9" numLanes="1" speed="22.22" allow="private emergency authority army vip passenger hov taxi bus coach delivery truck trailer motorcycle evehicle custom1 custom2" oneway="1"/>
    <type id="highway.primary" priority="12" numLanes="2" speed="27.78" disallow="tram rail_urban rail rail_electric rail_fast ship container cable_car subway aircraft wheelchair scooter drone" oneway="0"/>
    <type id="highway.primary_link" priority="7" numLanes="1" speed="22.22" disallow="tram rail_urban rail rail_electric rail_fast ship container cable_car subway aircraft wheelchair scooter drone" oneway="0"/>
    <type id="highway.secondary" priority="11" numLanes="1" speed="27.78" disallow="tram rail_urban rail rail_electric rail_fast ship container cable_car subway aircraft wheelchair scooter drone" oneway="0"/>
    <type id="highway.tertiary" priority="10" numLanes="1" speed="22.22" disallow="tram rail_urban rail rail_electric rail_fast ship container cable_car subway aircraft wheelchair scooter drone" oneway="0"/>

    <edge id=":10008349418_0" function="internal">
        <lane id=":10008349418_0_0" index="0" disallow="tram rail_urban rail rail_electric rail_fast ship container cable_car subway aircraft wheelchair scooter drone" speed="22.22" length="8.60" shape="520.77,785.83 519.13,783.92 517.42,783.12 515.71,782.32 514.06,780.42"/>
        <lane id=":10008349418_0_1" index="1" disallow="tram rail_urban rail rail_electric rail_fast ship container cable_car subway aircraft wheelchair scooter drone" speed="22.22" length="8.60" shape="520.77,785.83 516.85,778.85"/>
        <lane id=":10008349418_0_2" index="2" disallow="tram rail_urban rail rail_electric rail_fast ship container cable_car subway aircraft wheelchair scooter drone" speed="22.22" length="8.60" shape="520.77,785.83 520.00,783.43 520.21,781.55 520.41,779.68 519.64,777.29"/>
        <lane id=":10008349418_0_3" index="3" disallow="tram rail_urban rail rail_electric rail_fast ship container cable_car subway aircraft wheelchair scooter drone" speed="22.22" length="8.60" shape="523.56,784.26 522.79,781.87 523.00,779.99 523.21,778.11 522.44,775.72"/>
    </edge>
    <edge id=":10008349419_0" function="internal">
        <lane id=":10008349419_0_0" index="0" disallow="tram rail_urban rail rail_electric rail_fast ship container cable_car subway aircraft wheelchair scooter drone" speed="22.22" length="8.20" shape="414.36,584.55 413.07,582.54 411.86,581.38 410.64,580.23 409.31,578.24"/>
        <lane id=":10008349419_0_1" index="1" disallow="tram rail_urban rail rail_electric rail_fast ship container cable_car subway aircraft wheelchair scooter drone" speed="22.22" length="8.20" shape="417.22,583.10 415.92,581.09 414.70,579.92 413.48,578.75 412.14,576.75"/>
        <lane id=":10008349419_0_2" index="2" disallow="tram rail_urban rail rail_electric rail_fast ship container cable_car subway aircraft wheelchair scooter drone" speed="22.22" length="8.20" shape="420.08,581.66 418.77,579.63 417.55,578.45 416.32,577.28 414.98,575.26"/>
        <lane id=":10008349419_0_3" index="3" disallow="tram rail_urban rail rail_electric rail_fast ship container cable_car subway aircraft wheelchair scooter drone" speed="22.22" length="8.20" shape="420.08,581.66 419.21,579.39 418.96,577.70 418.71,576.02 417.81,573.77"/>
    </edge>
    <edge id=":114130298_0" function="internal">
        <lane id=":114130298_0_0" index="0" disallow="tram rail_urban rail rail_electric rail_fast ship container cable_car subway aircraft wheelchair scooter drone" speed="27.78" length="8.21" shape="1498.02,618.00 1500.27,618.86 1501.95,619.10 1503.63,619.34 1505.89,620.21"/>
        <lane id=":114130298_0_1" index="1" disallow="tram rail_urban rail rail_electric rail_fast ship container cable_car subway aircraft wheelchair scooter drone" speed="27.78" length="8.21" shape="1496.57,620.85 1498.82,621.71 1500.50,621.95 1502.18,622.19 1504.43,623.06"/>
        <lane id=":114130298_0_2" index="2" disallow="tram rail_urban rail rail_electric rail_fast ship container cable_car subway aircraft wheelchair scooter drone" speed="27.78" length="8.21" shape="1495.13,623.71 1497.38,624.57 1499.05,624.80 1500.73,625.04 1502.97,625.91"/>
        <lane id=":114130298_0_3" index="3" disallow="tram rail_urban rail rail_electric rail_fast ship container cable_car subway aircraft wheelchair scooter drone" speed="27.78" length="8.21" shape="1495.13,623.71 1497.15,625.01 1498.32,626.23 1499.50,627.44 1501.51,628.75"/>
    </edge>
    <edge id=":114130305_0" function="internal">
        <lane id=":114130305_0_0" index="0" disallow="tram rail_urban rail rail_electric rail_fast ship container cable_car subway aircraft wheelchair scooter drone" speed="27.78" length="7.96" shape="1989.29,790.57 1991.46,789.64 1992.44,787.89 1993.41,786.05 1995.55,784.88"/>
        <lane id=":114130305_0_1" index="1" disallow="tram rail_urban rail rail_electric rail_fast ship container cable_car subway aircraft wheelchair scooter drone" speed="27.78" length="7.96" shape="1989.29,790.57 1991.39,790.14 1992.73,789.44 1994.07,788.66 1996.14,788.02"/>
        <lane id=":114130305_0_2" index="2" disallow="tram rail_urban rail rail_electric rail_fast ship container cable_car subway aircraft wheelchair scooter drone" speed="27.78" length="7.96" shape="1989.29,790.57 1991.50,790.63 1993.03,791.01 1994.55,791.32 1996.73,791.17"/>
        <lane id=":114130305_0_3" index="3" disallow="tram rail_urban rail rail_electric rail_fast ship container cable_car subway aircraft wheelchair scooter drone" speed="27.78" length="7.96" shape="1989.55,793.76 1991.87,793.81 1993.46,794.18 1995.04,794.49 1997.33,794.31"/>
        <lane id=":114130305_0_4" index="4" disallow="tram rail_urban rail rail_electric rail_fast ship container cable_car subway aircraft wheelchair scooter drone" speed="27.78" length="7.96" shape="1989.82,796.95 1992.23,796.99 1993.89,797.36 1995.54,797.65 1997.92,797.46"/>
    </edge>
    <edge id=":114130314_0" function="internal">
        <lane id=":114130314_0_0" index="0" disallow="tram rail_urban rail rail_electric rail_fast ship container cable_car subway aircraft wheelchair scooter drone" speed="27.78" length="8.59" shape="2080.43,797.63 2078.13,798.44 2076.82,799.72 2075.52,801.05 2073.24,801.97"/>
        <lane id=":114130314_0_1" index="1" disallow="tram rail_urban rail rail_electric rail_fast ship container cable_car subway aircraft wheelchair scooter drone" speed="27.78" length="8.59" shape="2079.99,794.46 2077.65,795.28 2076.31,796.57 2074.97,797.89 2072.65,798.83"/>
        <lane id=":114130314_0_2" index="2" disallow="tram rail_urban rail rail_electric rail_fast ship container cable_car subway aircraft wheelchair scooter drone" speed="27.78" length="8.59" shape="2079.55,791.29 2077.17,792.11 2075.80,793.41 2074.43,794.74 2072.06,795.68"/>
        <lane id=":114130314_0_3" index="3" disallow="tram rail_urban rail rail_electric rail_fast ship container cable_car subway aircraft wheelchair scooter drone" speed="27.78" length="8.59" shape="2079.55,791.29 2071.48,792.53"/>
    </edge>
    <edge id=":114130314_4" function="internal">
        <lane id=":114130314_4_0" index="0" disallow="tram rail_urban rail rail_electric rail_fast ship container cable_car subway aircraft wheelchair scooter drone" speed="25.00" length="8.07" shape="2080.86,800.82 2078.61,801.62 2077.34,802.90 2076.06,804.21 2073.83,805.12"/>
        <lane id=":114130314_4_1" index="1" disallow="tram rail_urban rail rail_electric rail_fast ship container cable_car subway aircraft wheelchair scooter drone" speed="25.00" length="8.07" shape="2080.86,800.82 2073.24,801.97"/>
    </edge>
    <edge id=":1261680371_0" function="internal">
        <lane id=":1261680371_0_0" index="0" disallow="moped bicycle tram rail_urban rail rail_electric rail_fast ship container cable_car subway aircraft wheelchair scooter drone" speed="25.00" length="3.15" shape="1355.59,545.77 1356.38,546.26 1356.93,546.59 1357.49,546.89 1358.32,547.31"/>
    </edge>
    <edge id=":1261680371_1" function="internal">
        <lane id=":1261680371_1_0" index="0" disallow="tram rail_urban rail rail_electric rail_fast ship container cable_car subway aircraft wheelchair scooter drone" speed="27.78" length="2.83" shape="1354.31,548.92 1356.88,550.17"/>
        <lane id=":1261680371_1_1" index="1" disallow="tram rail_urban rail rail_electric rail_fast ship container cable_car subway aircraft wheelchair scooter drone" speed="27.78" length="2.83" shape="1352.91,551.80 1355.43,553.03"/>
    </edge>
    <edge id=":1264117732_0" function="internal">
        <lane id=":1264117732_0_0" index="0" allow="private emergency authority army vip passenger hov taxi bus coach delivery truck trailer motorcycle evehicle custom1 custom2" speed="22.22" length="3.10" shape="380.80,287.90 382.44,290.58"/>
        <lane id=":1264117732_0_1" index="1" allow="private emergency authority army vip passenger hov taxi bus coach delivery truck trailer motorcycle evehicle custom1 custom2" speed="22.22" length="3.10" shape="378.22,289.79 378.73,290.54 379.03,291.09 379.32,291.64 379.81,292.41"/>
    </edge>
    <edge id=":1264117732_2" function="internal">
        <lane id=":1264117732_2_0" index="0" allow="private emergency authority army vip passenger hov taxi bus coach delivery truck trailer motorcycle evehicle custom1 custom2" speed="22.22" length="2.90" shape="375.64,291.69 376.13,292.42 376.42,292.96 376.70,293.50 377.17,294.24"/>
        <lane id=":1264117732_2_1" index="1" allow="private emergency authority army vip passenger hov taxi bus coach delivery truck trailer motorcycle evehicle custom1 custom2" speed="22.22" length="2.90" shape="373.06,293.58 373.54,294.29 373.81,294.82 374.08,295.34 374.54,296.07"/>
        <lane id=":1264117732_2_2" index="2" allow="private emergency authority army vip passenger hov taxi bus coach delivery truck trailer motorcycle evehicle custom1 custom2" speed="22.22" length="2.90" shape="370.48,295.47 370.95,296.17 371.21,296.68 371.47,297.19 371.91,297.89"/>
    </edge>
    <edge id=":1264117734_0" function="internal">
        <lane id=":1264117734_0_0" index="0" disallow="tram rail_urban rail rail_electric rail_fast ship container cable_car subway aircraft wheelchair scooter drone" speed="22.22" length="19.75" shape="346.33,456.31 342.94,450.77 339.73,446.77 336.75,443.69 334.09,440.93"/>
    </edge>
    <edge id=":1264117734_1" function="internal">
        <lane id=":1264117734_1_0" index="0" disallow="tram rail_urban rail rail_electric rail_fast ship container cable_car subway aircraft wheelchair scooter drone" speed="22.22" length="19.80" shape="346.33,456.31 337.49,438.59"/>
        <lane id=":1264117734_1_1" index="1" disallow="tram rail_urban rail rail_electric rail_fast ship container cable_car subway aircraft wheelchair scooter drone" speed="22.22" length="19.80" shape="349.16,454.82 340.32,437.10"/>
        <lane id=":1264117734_1_2" index="2" disallow="tram rail_urban rail rail_electric rail_fast ship container cable_car subway aircraft wheelchair scooter drone" speed="22.22" length="19.80" shape="351.99,453.32 343.16,435.61"/>
        <lane id=":1264117734_1_3" index="3" disallow="tram rail_urban rail rail_electric rail_fast ship container cable_car subway aircraft wheelchair scooter drone" speed="22.22" length="19.80" shape="354.82,451.83 345.99,434.12"/>
    </edge>
    <edge id=":1264117754_0" function="internal">
        <lane id=":1264117754_0_0" index="0" disallow="tram rail_urban rail rail_electric rail_fast ship container cable_car subway aircraft wheelchair scooter drone" speed="25.00" length="4.40" shape="308.42,440.00 307.45,440.54 306.79,440.92 306.15,441.33 305.24,441.95"/>
        <lane id=":1264117754_0_1" index="1" disallow="tram rail_urban rail rail_electric rail_fast ship container cable_car subway aircraft wheelchair scooter drone" speed="25.00" length="4.40" shape="308.42,440.00 303.41,439.32"/>
    </edge>
    <edge id=":1264117754_2" function="internal">
        <lane id=":1264117754_2_0" index="0" disallow="tram rail_urban rail rail_electric rail_fast ship container cable_car subway aircraft wheelchair scooter drone" speed="27.78" length="6.35" shape="308.68,435.62 303.41,439.32"/>
        <lane id=":1264117754_2_1" index="1" disallow="tram rail_urban rail rail_electric rail_fast ship container cable_car subway aircraft wheelchair scooter drone" speed="27.78" length="6.35" shape="306.78,433.04 301.59,436.69"/>
        <lane id=":1264117754_2_2" index="2" disallow="tram rail_urban rail rail_electric rail_fast ship container cable_car subway aircraft wheelchair scooter drone" speed="27.78" length="6.35" shape="304.88,430.46 299.77,434.06"/>
    </edge>
    <edge id=":1264117778_0" function="internal">
        <lane id=":1264117778_0_0" index="0" allow="private emergency authority army vip passenger hov taxi bus coach delivery truck trailer motorcycle evehicle custom1 custom2" speed="22.22" length="5.52" shape="450.33,422.71 450.70,424.31 451.04,425.37 451.48,426.41 452.13,427.92"/>
    </edge>
    <edge id=":1264117778_1" function="internal">
        <lane id=":1264117778_1_0" index="0" allow="private emergency authority army vip passenger hov taxi bus coach delivery truck trailer motorcycle evehicle custom1 custom2" speed="22.22" length="7.61" shape="446.21,422.13 449.17,429.14"/>
    </edge>
    <edge id=":1264117791_0" function="internal">
        <lane id=":1264117791_0_0" index="0" disallow="tram rail_urban rail rail_electric rail_fast ship container cable_car subway aircraft wheelchair scooter drone" speed="22.22" length="7.87" shape="475.33,704.89 471.56,697.82"/>
        <lane id=":1264117791_0_1" index="1" disallow="tram rail_urban rail rail_electric rail_fast ship container cable_car subway aircraft wheelchair scooter drone" speed="22.22" length="7.87" shape="478.12,703.32 474.42,696.38"/>
        <lane id=":1264117791_0_2" index="2" disallow="tram rail_urban rail rail_electric rail_fast ship container cable_car subway aircraft wheelchair scooter drone" speed="22.22" length="7.87" shape="480.91,701.75 477.27,694.94"/>
    </edge>
    <edge id=":1446355299_0" function="internal">
        <lane id=":1446355299_0_0" index="0" disallow="tram rail_urban rail rail_electric rail_fast ship container cable_car subway aircraft wheelchair scooter drone" speed="22.50" length="26.59" shape="2129.74,737.77 2129.89,732.90 2129.96,726.32 2129.67,718.83 2128.69,711.25"/>
    </edge>
    <edge id=":1446355299_1" function="internal">
        <lane id=":1446355299_1_0" index="0" speed="22.78" length="26.61" shape="2133.69,737.38 2128.69,711.25"/>
        <lane id=":1446355299_1_1" index="1" speed="22.78" length="26.61" shape="2136.84,736.79 2131.83,710.64"/>
    </edge>
    <edge id=":1446355303_0" function="internal">
        <lane id=":1446355303_0_0" index="0" disallow="tram rail_urban rail rail_electric rail_fast ship container cable_car subway aircraft wheelchair scooter drone" speed="27.78" length="3.02" shape="2270.90,748.52 2273.85,748.13"/>
        <lane id=":1446355303_0_1" index="1" disallow="tram rail_urban rail rail_electric rail_fast ship container cable_car subway aircraft wheelchair scooter drone" speed="27.78" length="3.02" shape="2271.26,751.70 2274.31,751.30"/>
    </edge>
    <edge id=":1446355303_2" function="internal">
        <lane id=":1446355303_2_0" index="0" disallow="tram rail_urban rail rail_electric rail_fast ship container cable_car subway aircraft wheelchair scooter drone" speed="25.00" length="2.87" shape="2270.54,745.35 2273.39,744.97"/>
    </edge>
    <edge id=":1446355305_0" function="internal">
        <lane id=":1446355305_0_0" index="0" disallow="tram rail_urban rail rail_electric rail_fast ship container cable_car subway aircraft wheelchair scooter drone" speed="25.00" length="2.82" shape="2050.92,774.47 2053.68,773.91"/>
    </edge>
    <edge id=":1446355305_1" function="internal">
        <lane id=":1446355305_1_0" index="0" disallow="tram rail_urban rail rail_electric rail_fast ship container cable_car subway aircraft wheelchair scooter drone" speed="27.78" length="3.03" shape="2051.51,777.62 2054.36,777.09"/>
        <lane id=":1446355305_1_1" index="1" disallow="tram rail_urban rail rail_electric rail_fast ship container cable_car subway aircraft wheelchair scooter drone" speed="27.78" length="3.03" shape="2052.10,780.76 2055.04,780.22"/>
        <lane id=":1446355305_1_2" index="2" disallow="tram rail_urban rail rail_electric rail_fast ship container cable_car subway aircraft wheelchair scooter drone" speed="27.78" length="3.03" shape="2052.69,783.91 2055.71,783.35"/>
        <lane id=":1446355305_1_3" index="3" disallow="tram rail_urban rail rail_electric rail_fast ship container cable_car subway aircraft wheelchair scooter drone" speed="27.78" length="3.03" shape="2053.28,787.05 2056.38,786.48"/>
    </edge>
    <edge id=":1537093185_0" function="internal">
        <lane id=":1537093185_0_0" index="0" allow="private emergency authority army vip passenger hov taxi bus coach delivery truck trailer motorcycle evehicle custom1 custom2" speed="25.00" length="3.28" shape="779.01,367.45 779.98,367.54 780.65,367.58 781.32,367.56 782.29,367.49"/>
        <lane id=":1537093185_0_1" index="1" allow="private emergency authority army vip passenger hov taxi bus coach delivery truck trailer motorcycle evehicle custom1 custom2" speed="25.00" length="3.86" shape="778.68,370.63 779.82,370.74 780.61,370.78 781.39,370.76 782.53,370.68"/>
    </edge>
    <edge id=":1537093185_2" function="internal">
        <lane id=":1537093185_2_0" index="0" disallow="tram rail_urban rail rail_electric rail_fast ship container cable_car subway aircraft wheelchair scooter drone" speed="20.84" length="3.28" shape="778.36,373.81 781.63,374.22"/>
        <lane id=":1537093185_2_1" index="1" disallow="tram rail_urban rail rail_electric rail_fast ship container cable_car subway aircraft wheelchair scooter drone" speed="20.84" length="3.28" shape="778.03,376.99 781.26,377.40"/>
    </edge>
    <edge id=":172824408-AddedOffRampNode_0" function="internal">
        <lane id=":172824408-AddedOffRampNode_0_0" index="0" allow="private emergency authority army vip passenger hov taxi bus coach delivery truck trailer motorcycle evehicle custom1 custom2" speed="22.22" length="8.73" shape="297.84,185.53 300.17,187.15 302.71,186.91 305.27,186.66 307.67,188.23"/>
        <lane id=":172824408-AddedOffRampNode_0_1" index="1" allow="private emergency authority army vip passenger hov taxi bus coach delivery truck trailer motorcycle evehicle custom1 custom2" speed="22.22" length="8.73" shape="297.84,185.53 299.64,187.25 301.43,187.85 303.23,188.44 305.09,190.12"/>
        <lane id=":172824408-AddedOffRampNode_0_2" index="2" allow="private emergency authority army vip passenger hov taxi bus coach delivery truck trailer motorcycle evehicle custom1 custom2" speed="22.22" length="8.73" shape="297.84,185.53 302.51,192.01"/>
        <lane id=":172824408-AddedOffRampNode_0_3" index="3" allow="private emergency authority army vip passenger hov taxi bus coach delivery truck trailer motorcycle evehicle custom1 custom2" speed="22.22" length="8.73" shape="295.24,187.41 299.93,193.91"/>
        <lane id=":172824408-AddedOffRampNode_0_4" index="4" allow="private emergency authority army vip passenger hov taxi bus coach delivery truck trailer motorcycle evehicle custom1 custom2" speed="22.22" length="8.73" shape="292.65,189.29 297.35,195.80"/>
    </edge>
    <edge id=":178456430#0-AddedOffRampNode_0" function="internal">
        <lane id=":178456430#0-AddedOffRampNode_0_0" index="0" disallow="tram rail_urban rail rail_electric rail_fast ship container cable_car subway aircraft wheelchair scooter drone" speed="22.22" length="8.92" shape="746.69,546.07 744.78,543.93 742.26,543.52 739.73,543.11 737.81,540.98"/>
        <lane id=":178456430#0-AddedOffRampNode_0_1" index="1" disallow="tram rail_urban rail rail_electric rail_fast ship container cable_car subway aircraft wheelchair scooter drone" speed="22.22" length="8.92" shape="746.69,546.07 745.33,543.96 743.74,542.94 742.15,541.91 740.78,539.80"/>
        <lane id=":178456430#0-AddedOffRampNode_0_2" index="2" disallow="tram rail_urban rail rail_electric rail_fast ship container cable_car subway aircraft wheelchair scooter drone" speed="22.22" length="8.92" shape="746.69,546.07 743.76,538.63"/>
        <lane id=":178456430#0-AddedOffRampNode_0_3" index="3" disallow="tram rail_urban rail rail_electric rail_fast ship container cable_car subway aircraft wheelchair scooter drone" speed="22.22" length="8.92" shape="749.67,544.90 746.74,537.46"/>
    </edge>
    <edge id=":1888071004_0" function="internal">
        <lane id=":1888071004_0_0" index="0" disallow="tram rail_urban rail rail_electric rail_fast ship container cable_car subway aircraft wheelchair scooter drone" speed="27.78" length="8.50" shape="1064.20,424.56 1066.73,424.66 1068.51,423.97 1070.29,423.32 1072.79,423.51"/>
        <lane id=":1888071004_0_1" index="1" disallow="tram rail_urban rail rail_electric rail_fast ship container cable_car subway aircraft wheelchair scooter drone" speed="27.78" length="8.50" shape="1063.45,427.67 1065.95,427.76 1067.70,427.06 1069.44,426.40 1071.91,426.59"/>
        <lane id=":1888071004_0_2" index="2" disallow="tram rail_urban rail rail_electric rail_fast ship container cable_car subway aircraft wheelchair scooter drone" speed="27.78" length="8.50" shape="1063.45,427.67 1071.03,429.67"/>
        <lane id=":1888071004_0_3" index="3" disallow="tram rail_urban rail rail_electric rail_fast ship container cable_car subway aircraft wheelchair scooter drone" speed="27.78" length="8.50" shape="1063.45,427.67 1065.65,428.72 1066.82,430.14 1067.98,431.60 1070.15,432.74"/>
    </edge>
    <edge id=":1888071023_0" function="internal">
        <lane id=":1888071023_0_0" index="0" allow="private emergency authority army vip passenger hov taxi bus coach delivery truck trailer motorcycle evehicle custom1 custom2" speed="22.22" length="7.46" shape="1041.78,567.81 1042.85,569.61 1043.93,570.62 1045.09,571.59 1046.37,573.29"/>
        <lane id=":1888071023_0_1" index="1" allow="private emergency authority army vip passenger hov taxi bus coach delivery truck trailer motorcycle evehicle custom1 custom2" speed="22.22" length="7.46" shape="1041.78,567.81 1042.43,569.89 1042.55,571.44 1042.75,572.94 1043.61,574.91"/>
        <lane id=":1888071023_0_2" index="2" allow="private emergency authority army vip passenger hov taxi bus coach delivery truck trailer motorcycle evehicle custom1 custom2" speed="22.22" length="7.46" shape="1038.85,569.09 1039.54,571.28 1039.70,572.89 1039.93,574.47 1040.86,576.54"/>
    </edge>
    <edge id=":1888071033_0" function="internal">
        <lane id=":1888071033_0_0" index="0" disallow="tram rail_urban rail rail_electric rail_fast ship container cable_car subway aircraft wheelchair scooter drone" speed="22.22" length="3.05" shape="711.23,450.43 710.80,447.39"/>
        <lane id=":1888071033_0_1" index="1" disallow="tram rail_urban rail rail_electric rail_fast ship container cable_car subway aircraft wheelchair scooter drone" speed="22.22" length="3.05" shape="714.37,449.83 713.95,446.83"/>
    </edge>
    <edge id=":1888071033_2" function="internal">
        <lane id=":1888071033_2_0" index="0" disallow="tram rail_urban rail rail_electric rail_fast ship container cable_car subway aircraft wheelchair scooter drone" speed="22.22" length="2.96" shape="717.52,449.23 717.05,446.28"/>
        <lane id=":1888071033_2_1" index="1" disallow="tram rail_urban rail rail_electric rail_fast ship container cable_car subway aircraft wheelchair scooter drone" speed="22.22" length="2.96" shape="720.66,448.63 720.21,445.72"/>
    </edge>
    <edge id=":2252682304_0" function="internal">
        <lane id=":2252682304_0_0" index="0" disallow="tram rail_urban rail rail_electric rail_fast ship container cable_car subway aircraft wheelchair scooter drone" speed="27.78" length="8.21" shape="644.98,350.34 647.39,350.40 649.05,350.06 650.71,349.72 653.12,349.78"/>
        <lane id=":2252682304_0_1" index="1" disallow="tram rail_urban rail rail_electric rail_fast ship container cable_car subway aircraft wheelchair scooter drone" speed="27.78" length="8.21" shape="644.57,353.51 646.98,353.57 648.64,353.23 650.30,352.89 652.71,352.96"/>
        <lane id=":2252682304_0_2" index="2" disallow="tram rail_urban rail rail_electric rail_fast ship container cable_car subway aircraft wheelchair scooter drone" speed="27.78" length="8.21" shape="644.15,356.68 646.56,356.75 648.22,356.41 649.88,356.07 652.29,356.13"/>
        <lane id=":2252682304_0_3" index="3" disallow="tram rail_urban rail rail_electric rail_fast ship container cable_car subway aircraft wheelchair scooter drone" speed="27.78" length="8.21" shape="643.74,359.86 646.15,359.92 647.81,359.58 649.47,359.24 651.88,359.30"/>
        <lane id=":2252682304_0_4" index="4" disallow="tram rail_urban rail rail_electric rail_fast ship container cable_car subway aircraft wheelchair scooter drone" speed="27.78" length="8.21" shape="643.33,363.03 645.74,363.09 647.40,362.75 649.06,362.41 651.47,362.48"/>
        <lane id=":2252682304_0_5" index="5" disallow="tram rail_urban rail rail_electric rail_fast ship container cable_car subway aircraft wheelchair scooter drone" speed="27.78" length="8.21" shape="643.33,363.03 645.67,363.59 647.19,364.34 648.71,365.09 651.05,365.65"/>
    </edge>
    <edge id=":2252682316_0" function="internal">
        <lane id=":2252682316_0_0" index="0" disallow="tram rail_urban rail rail_electric rail_fast ship container cable_car subway aircraft wheelchair scooter drone" speed="27.78" length="8.21" shape="1590.03,663.25 1592.27,664.12 1593.95,664.36 1595.63,664.60 1597.87,665.47"/>
        <lane id=":2252682316_0_1" index="1" disallow="tram rail_urban rail rail_electric rail_fast ship container cable_car subway aircraft wheelchair scooter drone" speed="27.78" length="8.21" shape="1590.03,663.25 1592.04,664.57 1593.22,665.79 1594.40,667.01 1596.42,668.32"/>
        <lane id=":2252682316_0_2" index="2" disallow="tram rail_urban rail rail_electric rail_fast ship container cable_car subway aircraft wheelchair scooter drone" speed="27.78" length="8.21" shape="1588.57,666.10 1590.59,667.42 1591.76,668.64 1592.94,669.86 1594.96,671.17"/>
        <lane id=":2252682316_0_3" index="3" disallow="tram rail_urban rail rail_electric rail_fast ship container cable_car subway aircraft wheelchair scooter drone" speed="27.78" length="8.21" shape="1587.11,668.95 1589.13,670.27 1590.31,671.49 1591.49,672.71 1593.51,674.02"/>
        <lane id=":2252682316_0_4" index="4" disallow="tram rail_urban rail rail_electric rail_fast ship container cable_car subway aircraft wheelchair scooter drone" speed="27.78" length="8.21" shape="1585.65,671.80 1587.67,673.12 1588.85,674.34 1590.03,675.56 1592.05,676.87"/>
    </edge>
    <edge id=":2252734168_0" function="internal">
        <lane id=":2252734168_0_0" index="0" disallow="tram rail_urban rail rail_electric rail_fast ship container cable_car subway aircraft wheelchair scooter drone" speed="22.22" length="8.18" shape="264.87,278.28 263.64,276.24 262.46,275.05 261.26,273.87 259.97,271.86"/>
        <lane id=":2252734168_0_1" index="1" disallow="tram rail_urban rail rail_electric rail_fast ship container cable_car subway aircraft wheelchair scooter drone" speed="22.22" length="8.18" shape="267.77,276.93 266.53,274.86 265.34,273.65 264.13,272.45 262.82,270.41"/>
    </edge>
    <edge id=":271878193_0" function="internal">
        <lane id=":271878193_0_0" index="0" disallow="tram rail_urban rail rail_electric rail_fast ship container cable_car subway aircraft wheelchair scooter drone" speed="22.78" length="15.24" shape="2157.45,831.67 2156.01,827.10 2154.19,823.91 2152.13,821.34 2149.91,818.66"/>
    </edge>
    <edge id=":271878193_1" function="internal">