<?xml version="1.0" encoding="UTF-8"?>

<!-- generated on 2024-06-30 12:20:50 by Eclipse SUMO netedit Version 1.20.0
<configuration xmlns:xsi="http://www.w3.org/2001/XMLSchema-instance" xsi:noNamespaceSchemaLocation="http://sumo.dlr.de/xsd/neteditConfiguration.xsd">

    <input>
        <sumocfg-file value="/Users/eviat/PycharmProjects/Traffic_Tune_Project/Nets/intersection_2/intersection_2.sumocfg"/>
        <route-files value="/Users/eviat/PycharmProjects/Traffic_Tune_Project/Nets/intersection_2/routes_2/intersection_2_random_1.rou.xml"/>
        <sumo-net-file value="/Users/eviat/PycharmProjects/Traffic_Tune_Project/Nets/intersection_2/intersection_2.net.xml"/>
    </input>

    <output>
        <output-file value="/Users/eviat/PycharmProjects/Traffic_Tune_Project/Nets/intersection_2/intersection_2.net.xml"/>
        <output.street-names value="true"/>
    </output>

    <processing>
        <geometry.min-radius.fix.railways value="false"/>
        <geometry.max-grade.fix value="false"/>
        <offset.disable-normalization value="true"/>
        <lefthand value="0"/>
    </processing>

    <junctions>
        <no-turnarounds value="true"/>
        <junctions.corner-detail value="5"/>
        <junctions.limit-turn-speed value="5.50"/>
        <rectangular-lane-cut value="0"/>
    </junctions>

    <pedestrian>
        <walkingareas value="0"/>
    </pedestrian>

</configuration>
-->

<net version="1.20" junctionCornerDetail="5" limitTurnSpeed="5.50" xmlns:xsi="http://www.w3.org/2001/XMLSchema-instance" xsi:noNamespaceSchemaLocation="http://sumo.dlr.de/xsd/net_file.xsd">

    <location netOffset="-3876123.64,-3784455.95" convBoundary="0.00,0.00,678.55,625.07" origBoundary="34.819811,32.160947,34.825907,32.165700" projParameter="+proj=merc +a=6378137 +b=6378137 +lat_ts=0.0 +lon_0=0.0 +x_0=0.0 +y_0=0 +k=1.0 +units=m +nadgrids=@null +wktext +no_defs"/>

    <type id="highway.footway" priority="1" numLanes="1" speed="2.78" allow="pedestrian" oneway="1" width="2.00"/>
    <type id="highway.motorway_link" priority="9" numLanes="1" speed="22.22" allow="private emergency authority army vip passenger hov taxi bus coach delivery truck trailer motorcycle evehicle custom1 custom2" oneway="1"/>
    <type id="highway.path" priority="1" numLanes="1" speed="5.56" allow="pedestrian bicycle" oneway="0" width="2.00"/>
    <type id="highway.pedestrian" priority="1" numLanes="1" speed="2.78" allow="pedestrian" oneway="1" width="2.00"/>
    <type id="highway.primary" priority="12" numLanes="2" speed="27.78" disallow="tram rail_urban rail rail_electric rail_fast ship container cable_car subway aircraft wheelchair scooter drone" oneway="0"/>
    <type id="highway.primary_link" priority="7" numLanes="1" speed="22.22" disallow="tram rail_urban rail rail_electric rail_fast ship container cable_car subway aircraft wheelchair scooter drone" oneway="0"/>

    <edge id=":114130298_0" function="internal">
        <lane id=":114130298_0_0" index="0" disallow="tram rail_urban rail rail_electric rail_fast ship container cable_car subway aircraft wheelchair scooter drone" speed="27.78" length="8.21" shape="177.87,169.72 180.12,170.58 181.80,170.82 183.48,171.06 185.74,171.93"/>
        <lane id=":114130298_0_1" index="1" disallow="tram rail_urban rail rail_electric rail_fast ship container cable_car subway aircraft wheelchair scooter drone" speed="27.78" length="8.21" shape="176.42,172.57 178.67,173.43 180.35,173.67 182.03,173.91 184.28,174.78"/>
        <lane id=":114130298_0_2" index="2" disallow="tram rail_urban rail rail_electric rail_fast ship container cable_car subway aircraft wheelchair scooter drone" speed="27.78" length="8.21" shape="174.98,175.43 177.23,176.29 178.90,176.52 180.58,176.76 182.82,177.63"/>
        <lane id=":114130298_0_3" index="3" disallow="tram rail_urban rail rail_electric rail_fast ship container cable_car subway aircraft wheelchair scooter drone" speed="27.78" length="8.21" shape="174.98,175.43 177.00,176.73 178.17,177.95 179.35,179.16 181.36,180.47"/>
    </edge>
    <edge id=":11434838725_0" function="internal">
        <lane id=":11434838725_0_0" index="0" allow="pedestrian bicycle" speed="5.56" length="7.57" width="2.00" shape="496.04,66.43 493.91,67.13 492.47,67.68 491.10,68.40 489.21,69.59"/>
    </edge>
    <edge id=":11434838725_1" function="internal">
        <lane id=":11434838725_1_0" index="0" allow="pedestrian bicycle" speed="2.90" length="2.74" width="2.00" shape="496.04,66.43 495.13,66.33 494.67,66.00 494.66,65.43 495.00,64.82"/>
    </edge>
    <edge id=":11434838725_4" function="internal">
        <lane id=":11434838725_4_0" index="0" allow="pedestrian bicycle" speed="2.90" length="0.22" width="2.00" shape="495.00,64.82 495.10,64.63"/>
    </edge>
    <edge id=":11434838725_2" function="internal">
        <lane id=":11434838725_2_0" index="0" allow="pedestrian bicycle" speed="5.56" length="7.76" width="2.00" shape="488.11,67.92 490.06,66.68 491.45,65.94 492.92,65.36 495.10,64.63"/>
    </edge>
    <edge id=":11434838725_3" function="internal">
        <lane id=":11434838725_3_0" index="0" allow="pedestrian bicycle" speed="2.89" length="2.42" width="2.00" shape="488.11,67.92 489.02,67.93 489.50,68.21 489.56,68.76 489.40,69.13"/>
    </edge>
    <edge id=":11434838725_5" function="internal">
        <lane id=":11434838725_5_0" index="0" allow="pedestrian bicycle" speed="2.89" length="0.50" width="2.00" shape="489.40,69.13 489.21,69.59"/>
    </edge>
    <edge id=":1261680371_0" function="internal">
        <lane id=":1261680371_0_0" index="0" disallow="moped bicycle tram rail_urban rail rail_electric rail_fast ship container cable_car subway aircraft wheelchair scooter drone" speed="25.00" length="7.72" shape="34.56,100.27 36.59,101.05 38.25,100.81 39.95,100.49 42.13,101.03"/>
        <lane id=":1261680371_0_1" index="1" disallow="moped bicycle tram rail_urban rail rail_electric rail_fast ship container cable_car subway aircraft wheelchair scooter drone" speed="25.00" length="7.72" shape="34.56,100.27 36.31,101.45 37.53,102.23 38.80,102.93 40.68,103.89"/>
        <lane id=":1261680371_0_2" index="2" disallow="moped bicycle tram rail_urban rail rail_electric rail_fast ship container cable_car subway aircraft wheelchair scooter drone" speed="25.00" length="7.72" shape="34.56,100.27 36.18,101.98 36.80,103.68 37.47,105.29 39.24,106.75"/>
    </edge>
    <edge id=":2252682316_0" function="internal">
        <lane id=":2252682316_0_0" index="0" disallow="tram rail_urban rail rail_electric rail_fast ship container cable_car subway aircraft wheelchair scooter drone" speed="27.78" length="8.21" shape="269.88,214.97 272.12,215.84 273.80,216.08 275.48,216.32 277.72,217.19"/>
        <lane id=":2252682316_0_1" index="1" disallow="tram rail_urban rail rail_electric rail_fast ship container cable_car subway aircraft wheelchair scooter drone" speed="27.78" length="8.21" shape="269.88,214.97 271.90,216.29 273.07,217.51 274.25,218.73 276.27,220.04"/>
        <lane id=":2252682316_0_2" index="2" disallow="tram rail_urban rail rail_electric rail_fast ship container cable_car subway aircraft wheelchair scooter drone" speed="27.78" length="8.21" shape="268.42,217.82 270.44,219.14 271.61,220.36 272.79,221.58 274.81,222.89"/>
        <lane id=":2252682316_0_3" index="3" disallow="tram rail_urban rail rail_electric rail_fast ship container cable_car subway aircraft wheelchair scooter drone" speed="27.78" length="8.21" shape="266.96,220.67 268.98,221.99 270.16,223.21 271.33,224.43 273.36,225.74"/>
        <lane id=":2252682316_0_4" index="4" disallow="tram rail_urban rail rail_electric rail_fast ship container cable_car subway aircraft wheelchair scooter drone" speed="27.78" length="8.21" shape="265.50,223.52 267.52,224.84 268.70,226.06 269.88,227.28 271.90,228.59"/>
    </edge>
    <edge id=":4902236052_0" function="internal">
        <lane id=":4902236052_0_0" index="0" allow="pedestrian bicycle" speed="2.89" length="2.92" width="2.00" shape="333.43,426.25 332.64,425.81 332.35,425.33 332.56,424.81 333.27,424.26"/>
    </edge>
    <edge id=":4902236056_0" function="internal">
        <lane id=":4902236056_0_0" index="0" allow="pedestrian bicycle" speed="2.89" length="2.92" width="2.00" shape="227.89,478.41 227.01,478.61 226.47,478.45 226.28,477.92 226.43,477.03"/>
    </edge>
    <edge id=":4906521289_0" function="internal">
        <lane id=":4906521289_0_0" index="0" allow="pedestrian bicycle" speed="5.56" length="4.95" width="2.00" shape="288.11,452.45 286.66,452.67 285.66,452.80 284.66,452.89 283.20,452.97"/>
    </edge>
    <edge id=":4906521289_1" function="internal">
        <lane id=":4906521289_1_0" index="0" allow="pedestrian bicycle" speed="2.89" length="2.39" width="2.00" shape="288.11,452.45 287.30,452.06 286.98,451.61 287.15,451.07 287.43,450.82"/>
    </edge>
    <edge id=":4906521289_4" function="internal">
        <lane id=":4906521289_4_0" index="0" allow="pedestrian bicycle" speed="2.89" length="0.53" width="2.00" shape="287.43,450.82 287.82,450.47"/>
    </edge>
    <edge id=":4906521289_2" function="internal">
        <lane id=":4906521289_2_0" index="0" allow="pedestrian bicycle" speed="5.56" length="4.75" width="2.00" shape="283.10,450.97 284.51,450.90 285.47,450.81 286.43,450.68 287.82,450.47"/>
    </edge>
    <edge id=":4906521289_3" function="internal">
        <lane id=":4906521289_3_0" index="0" allow="pedestrian bicycle" speed="2.89" length="0.79" width="2.00" shape="283.10,450.97 283.78,451.38"/>
    </edge>
    <edge id=":4906521289_5" function="internal">
        <lane id=":4906521289_5_0" index="0" allow="pedestrian bicycle" speed="2.89" length="2.13" width="2.00" shape="283.78,451.38 283.87,451.44 284.15,451.93 283.92,452.44 283.20,452.97"/>
    </edge>
    <edge id=":4906521291_0" function="internal">
        <lane id=":4906521291_0_0" index="0" allow="pedestrian bicycle" speed="2.89" length="2.92" width="2.00" shape="203.00,448.28 202.81,447.40 202.98,446.87 203.50,446.68 204.39,446.84"/>
    </edge>
    <edge id=":4906521294_0" function="internal">
        <lane id=":4906521294_0_0" index="0" allow="pedestrian bicycle" speed="4.57" length="4.07" width="2.00" shape="239.79,460.54 239.46,459.46 238.88,458.73 238.05,458.33 236.96,458.27"/>
    </edge>
    <edge id=":4906521294_1" function="internal">
        <lane id=":4906521294_1_0" index="0" allow="pedestrian bicycle" speed="5.56" length="7.19" width="2.00" shape="239.79,460.54 239.75,458.57 240.34,457.06 241.57,455.98 243.43,455.35"/>
    </edge>
    <edge id=":4906521294_2" function="internal">
        <lane id=":4906521294_2_0" index="0" allow="pedestrian bicycle" speed="2.89" length="2.92" width="2.00" shape="239.79,460.54 240.16,459.72 240.61,459.39 241.15,459.56 241.76,460.22"/>
    </edge>
    <edge id=":4906521294_3" function="internal">
        <lane id=":4906521294_3_0" index="0" allow="pedestrian bicycle" speed="4.47" length="4.02" width="2.00" shape="243.80,457.31 242.76,457.67 242.07,458.27 241.74,459.12 241.76,460.22"/>
    </edge>
    <edge id=":4906521294_4" function="internal">
        <lane id=":4906521294_4_0" index="0" allow="pedestrian bicycle" speed="5.56" length="6.91" width="2.00" shape="243.80,457.31 241.78,457.69 240.40,457.91 239.00,458.08 236.96,458.27"/>
    </edge>
    <edge id=":4906521294_5" function="internal">
        <lane id=":4906521294_5_0" index="0" allow="pedestrian bicycle" speed="2.89" length="2.92" width="2.00" shape="243.80,457.31 242.97,456.96 242.63,456.52 242.78,455.98 243.43,455.35"/>
    </edge>
    <edge id=":4906521294_6" function="internal">
        <lane id=":4906521294_6_0" index="0" allow="pedestrian bicycle" speed="5.56" length="6.72" width="2.00" shape="236.78,456.28 238.77,456.09 240.12,455.93 241.47,455.71 243.43,455.35"/>
    </edge>
    <edge id=":4906521294_7" function="internal">
        <lane id=":4906521294_7_0" index="0" allow="pedestrian bicycle" speed="5.56" length="7.13" width="2.00" shape="236.78,456.28 238.70,456.38 240.16,457.07 241.19,458.35 241.76,460.22"/>
    </edge>
    <edge id=":4906521294_8" function="internal">
        <lane id=":4906521294_8_0" index="0" allow="pedestrian bicycle" speed="2.89" length="2.92" width="2.00" shape="236.78,456.28 237.57,456.71 237.87,457.18 237.66,457.70 236.96,458.27"/>
    </edge>
    <edge id=":4906521297_0" function="internal">
        <lane id=":4906521297_0_0" index="0" allow="pedestrian bicycle" speed="5.56" length="7.87" width="2.00" shape="330.05,444.28 328.07,445.53 326.69,446.42 325.23,447.03 322.97,447.47"/>
    </edge>
    <edge id=":4906521297_1" function="internal">
        <lane id=":4906521297_1_0" index="0" allow="pedestrian bicycle" speed="2.89" length="2.92" width="2.00" shape="330.05,444.28 329.15,444.23 328.69,443.92 328.65,443.36 329.05,442.55"/>
    </edge>
    <edge id=":4906521297_2" function="internal">
        <lane id=":4906521297_2_0" index="0" allow="pedestrian bicycle" speed="5.56" length="7.08" width="2.00" shape="322.70,445.49 324.73,445.08 326.04,444.51 327.27,443.69 329.05,442.55"/>
    </edge>
    <edge id=":4906521297_3" function="internal">
        <lane id=":4906521297_3_0" index="0" allow="pedestrian bicycle" speed="2.89" length="2.92" width="2.00" shape="322.70,445.49 323.51,445.89 323.83,446.35 323.64,446.88 322.97,447.47"/>
    </edge>
    <edge id=":6713101204_0" function="internal">
        <lane id=":6713101204_0_0" index="0" allow="pedestrian bicycle" speed="2.89" length="2.92" width="2.00" shape="495.83,64.39 496.70,64.63 497.09,65.03 497.01,65.58 496.46,66.29"/>
    </edge>
    <edge id=":6943906070_0" function="internal">
        <lane id=":6943906070_0_0" index="0" disallow="moped bicycle tram rail_urban rail rail_electric rail_fast ship container cable_car subway aircraft wheelchair scooter drone" speed="22.22" length="8.11" shape="9.26,85.06 11.40,86.12 13.03,86.52 14.65,86.94 16.74,88.07"/>
    </edge>
    <edge id=":8076110241_0" function="internal">
        <lane id=":8076110241_0_0" index="0" allow="pedestrian bicycle" speed="2.89" length="2.92" width="2.00" shape="480.22,78.12 479.43,78.56 478.87,78.55 478.54,78.10 478.44,77.21"/>
    </edge>
    <edge id=":8811003262_0" function="internal">
        <lane id=":8811003262_0_0" index="0" allow="pedestrian bicycle" speed="2.89" length="2.92" width="2.00" shape="333.35,439.72 334.25,439.70 334.74,439.97 334.83,440.52 334.50,441.36"/>
    </edge>
    <edge id=":8811003305_0" function="internal">
        <lane id=":8811003305_0_0" index="0" allow="pedestrian bicycle" speed="2.89" length="2.92" width="2.00" shape="372.97,420.11 373.79,420.50 374.11,420.95 373.93,421.48 373.27,422.09"/>
    </edge>
    <edge id=":9659553871_0" function="internal">
        <lane id=":9659553871_0_0" index="0" allow="pedestrian bicycle" speed="5.56" length="5.87" width="2.00" shape="280.24,453.11 278.50,453.17 277.31,453.16 276.12,453.10 274.38,453.01"/>
    </edge>
    <edge id=":9659553871_1" function="internal">
        <lane id=":9659553871_1_0" index="0" allow="pedestrian bicycle" speed="2.89" length="2.92" width="2.00" shape="280.24,453.11 279.46,452.65 279.19,452.16 279.42,451.65 280.14,451.12"/>
    </edge>
    <edge id=":9659553871_2" function="internal">
        <lane id=":9659553871_2_0" index="0" allow="pedestrian bicycle" speed="5.56" length="5.68" width="2.00" shape="274.46,451.01 276.15,451.10 277.30,451.16 278.46,451.17 280.14,451.12"/>
    </edge>
    <edge id=":9659553871_3" function="internal">
        <lane id=":9659553871_3_0" index="0" allow="pedestrian bicycle" speed="2.89" length="2.92" width="2.00" shape="274.46,451.01 275.19,451.54 275.42,452.05 275.15,452.54 274.38,453.01"/>
    </edge>
    <edge id=":9659553897_0" function="internal">
        <lane id=":9659553897_0_0" index="0" allow="pedestrian bicycle" speed="5.56" length="6.61" width="2.00" shape="242.09,462.24 242.14,464.00 241.67,465.47 240.68,466.65 239.17,467.55"/>
    </edge>
    <edge id=":9659553897_1" function="internal">
        <lane id=":9659553897_1_0" index="0" allow="pedestrian bicycle" speed="2.89" length="2.92" width="2.00" shape="242.09,462.24 241.72,463.06 241.27,463.39 240.73,463.22 240.12,462.56"/>
    </edge>
    <edge id=":9659553897_2" function="internal">
        <lane id=":9659553897_2_0" index="0" allow="pedestrian bicycle" speed="4.79" length="3.92" width="2.00" shape="238.38,465.71 239.28,465.18 239.87,464.48 240.15,463.60 240.12,462.56"/>
    </edge>
    <edge id=":9659553897_3" function="internal">
        <lane id=":9659553897_3_0" index="0" allow="pedestrian bicycle" speed="2.89" length="2.92" width="2.00" shape="238.38,465.71 239.27,465.88 239.70,466.24 239.66,466.80 239.17,467.55"/>
    </edge>
    <edge id=":9942330754_0" function="internal">
        <lane id=":9942330754_0_0" index="0" allow="pedestrian bicycle" speed="2.89" length="2.92" width="2.00" shape="98.04,587.75 97.69,588.58 97.25,588.92 96.71,588.77 96.08,588.13"/>
    </edge>
    <edge id=":9942330757_0" function="internal">
        <lane id=":9942330757_0_0" index="0" allow="pedestrian bicycle" speed="2.89" length="2.92" width="2.00" shape="71.01,465.97 71.34,465.13 71.78,464.78 72.32,464.92 72.97,465.55"/>
    </edge>
    <edge id=":J2_0" function="internal">
        <lane id=":J2_0_0" index="0" speed="18.60" length="14.81" shape="363.84,335.69 365.45,331.37 365.86,327.87 365.62,324.66 365.30,321.21"/>
    </edge>
    <edge id=":J2_1" function="internal">
        <lane id=":J2_1_0" index="0" speed="22.22" length="20.02" shape="363.84,335.69 372.75,317.71"/>
        <lane id=":J2_1_1" index="1" speed="22.22" length="20.02" shape="366.72,337.09 375.59,319.19"/>
    </edge>
    <edge id=":J3_0" function="internal">
        <lane id=":J3_0_0" index="0" disallow="tram rail_urban rail rail_electric rail_fast ship container cable_car subway aircraft wheelchair scooter drone" speed="19.72" length="15.88" shape="356.63,296.00 354.42,293.46 352.58,291.00 350.24,288.60 346.51,286.20"/>
        <lane id=":J3_0_1" index="1" disallow="tram rail_urban rail rail_electric rail_fast ship container cable_car subway aircraft wheelchair scooter drone" speed="19.72" length="15.88" shape="356.63,296.00 354.72,293.05 353.51,289.68 351.70,286.31 347.97,283.35"/>
        <lane id=":J3_0_2" index="2" disallow="tram rail_urban rail rail_electric rail_fast ship container cable_car subway aircraft wheelchair scooter drone" speed="19.72" length="15.88" shape="356.63,296.00 355.06,292.66 354.54,288.41 353.26,284.08 349.43,280.51"/>
    </edge>
    <edge id=":J3_3" function="internal">
        <lane id=":J3_3_0" index="0" disallow="tram rail_urban rail rail_electric rail_fast ship container cable_car subway aircraft wheelchair scooter drone" speed="19.44" length="14.37" shape="359.59,292.46 346.51,286.20"/>
        <lane id=":J3_3_1" index="1" disallow="tram rail_urban rail rail_electric rail_fast ship container cable_car subway aircraft wheelchair scooter drone" speed="19.44" length="14.37" shape="360.97,289.57 347.97,283.35"/>
        <lane id=":J3_3_2" index="2" disallow="tram rail_urban rail rail_electric rail_fast ship container cable_car subway aircraft wheelchair scooter drone" speed="19.44" length="14.37" shape="362.35,286.68 349.43,280.51"/>
        <lane id=":J3_3_3" index="3" disallow="tram rail_urban rail rail_electric rail_fast ship container cable_car subway aircraft wheelchair scooter drone" speed="19.44" length="14.37" shape="363.73,283.80 350.89,277.66"/>
    </edge>
    <edge id=":cluster8991421878_8991421879_cluster2252682318_2252682322_385041476_cluster_10599613510_114130311_0" function="internal">
        <lane id=":cluster8991421878_8991421879_cluster2252682318_2252682322_385041476_cluster_10599613510_114130311_0_0" index="0" disallow="tram rail_urban rail rail_electric rail_fast ship container cable_car subway aircraft wheelchair scooter drone" speed="9.27" length="19.38" shape="408.59,317.75 401.57,314.98 396.23,313.74 392.57,314.01 390.58,315.81"/>
    </edge>
    <edge id=":cluster8991421878_8991421879_cluster2252682318_2252682322_385041476_cluster_10599613510_114130311_1" function="internal">
        <lane id=":cluster8991421878_8991421879_cluster2252682318_2252682322_385041476_cluster_10599613510_114130311_1_0" index="0" disallow="tram rail_urban rail rail_electric rail_fast ship container cable_car subway aircraft wheelchair scooter drone" speed="23.61" length="37.33" shape="408.59,317.75 375.54,300.09"/>
        <lane id=":cluster8991421878_8991421879_cluster2252682318_2252682322_385041476_cluster_10599613510_114130311_1_1" index="1" disallow="tram rail_urban rail rail_electric rail_fast ship container cable_car subway aircraft wheelchair scooter drone" speed="23.61" length="37.33" shape="409.89,314.82 376.92,297.21"/>
        <lane id=":cluster8991421878_8991421879_cluster2252682318_2252682322_385041476_cluster_10599613510_114130311_1_2" index="2" disallow="tram rail_urban rail rail_electric rail_fast ship container cable_car subway aircraft wheelchair scooter drone" speed="23.61" length="37.33" shape="411.19,311.90 378.31,294.32"/>
        <lane id=":cluster8991421878_8991421879_cluster2252682318_2252682322_385041476_cluster_10599613510_114130311_1_3" index="3" disallow="tram rail_urban rail rail_electric rail_fast ship container cable_car subway aircraft wheelchair scooter drone" speed="23.61" length="37.33" shape="412.49,308.97 379.69,291.43"/>
    </edge>
    <edge id=":cluster8991421878_8991421879_cluster2252682318_2252682322_385041476_cluster_10599613510_114130311_5" function="internal">
        <lane id=":cluster8991421878_8991421879_cluster2252682318_2252682322_385041476_cluster_10599613510_114130311_5_0" index="0" disallow="tram rail_urban rail rail_electric rail_fast ship container cable_car subway aircraft wheelchair scooter drone" speed="27.78" length="36.79" shape="388.23,273.60 420.19,291.63"/>
        <lane id=":cluster8991421878_8991421879_cluster2252682318_2252682322_385041476_cluster_10599613510_114130311_5_1" index="1" disallow="tram rail_urban rail rail_electric rail_fast ship container cable_car subway aircraft wheelchair scooter drone" speed="27.78" length="36.79" shape="386.84,276.48 418.89,294.55"/>
        <lane id=":cluster8991421878_8991421879_cluster2252682318_2252682322_385041476_cluster_10599613510_114130311_5_2" index="2" disallow="tram rail_urban rail rail_electric rail_fast ship container cable_car subway aircraft wheelchair scooter drone" speed="27.78" length="36.79" shape="385.46,279.37 417.59,297.47"/>
    </edge>
    <edge id=":cluster8991421878_8991421879_cluster2252682318_2252682322_385041476_cluster_10599613510_114130311_8" function="internal">
        <lane id=":cluster8991421878_8991421879_cluster2252682318_2252682322_385041476_cluster_10599613510_114130311_8_0" index="0" disallow="tram rail_urban rail rail_electric rail_fast ship container cable_car subway aircraft wheelchair scooter drone" speed="13.04" length="38.42" shape="384.08,282.26 391.13,287.61 394.56,294.98 394.38,304.38 390.58,315.81"/>
        <lane id=":cluster8991421878_8991421879_cluster2252682318_2252682322_385041476_cluster_10599613510_114130311_8_1" index="1" disallow="tram rail_urban rail rail_electric rail_fast ship container cable_car subway aircraft wheelchair scooter drone" speed="12.18" length="33.39" shape="382.70,285.14 388.59,289.71 391.39,296.13 391.08,304.39 387.66,314.49"/>
    </edge>
    <edge id=":cluster8991421878_8991421879_cluster2252682318_2252682322_385041476_cluster_10599613510_114130311_10" function="internal">
        <lane id=":cluster8991421878_8991421879_cluster2252682318_2252682322_385041476_cluster_10599613510_114130311_10_0" index="0" disallow="tram rail_urban rail rail_electric rail_fast ship container cable_car subway aircraft wheelchair scooter drone" speed="15.02" length="50.18" shape="376.94,309.66 384.91,298.44 394.55,292.18 405.88,290.88 418.89,294.55"/>
        <lane id=":cluster8991421878_8991421879_cluster2252682318_2252682322_385041476_cluster_10599613510_114130311_10_1" index="1" disallow="tram rail_urban rail rail_electric rail_fast ship container cable_car subway aircraft wheelchair scooter drone" speed="14.26" length="45.10" shape="379.86,310.97 387.01,300.92 395.69,295.31 405.88,294.17 417.59,297.47"/>
    </edge>

    <edge id="-1085062407" from="9942330757" to="9942330754" priority="1" type="highway.path" shape="71.43,463.15 85.05,526.70 97.06,587.94">
        <lane id="-1085062407_0" index="0" allow="pedestrian bicycle" speed="5.56" length="124.75" width="2.00" shape="72.97,465.55 86.03,526.50 98.04,587.75">
            <param key="origId" value="1085062407 1085062406"/>
        </lane>
    </edge>
    <edge id="-1232666887#0" from="11434838725" to="6713101204" priority="1" type="highway.path" shape="489.02,68.52 493.33,66.27 498.08,64.70">
        <lane id="-1232666887#0_0" index="0" allow="pedestrian bicycle" speed="5.56" length="0.77" width="2.00" shape="495.10,64.63 495.83,64.39">
            <param key="origId" value="1232666887"/>
        </lane>
    </edge>
    <edge id="-1232666887#1" from="8076110241" to="11434838725" priority="1" type="highway.path" shape="478.65,78.99 480.20,75.98 483.15,72.34 489.02,68.52">
        <lane id="-1232666887#1_0" index="0" allow="pedestrian bicycle" speed="5.56" length="13.68" width="2.00" shape="478.44,77.21 479.36,75.43 482.47,71.59 488.11,67.92">
            <param key="origId" value="1232666887"/>
        </lane>
    </edge>
    <edge id="-31536275#0" from="4906521294" to="4906521291" priority="1" type="highway.path" shape="240.22,456.97 231.28,457.78 223.35,457.28 206.48,450.25 200.60,444.57">
        <lane id="-31536275#0_0" index="0" allow="pedestrian bicycle" speed="5.56" length="36.57" width="2.00" shape="236.96,458.27 231.29,458.78 223.12,458.27 205.92,451.10 203.00,448.28">
            <param key="origId" value="31536275"/>
        </lane>
    </edge>
    <edge id="-31536275#1" from="9659553871" to="4906521294" priority="1" type="highway.path" shape="278.60,452.19 273.36,451.96 266.03,452.63 252.93,454.58 240.22,456.97">
        <lane id="-31536275#1_0" index="0" allow="pedestrian bicycle" speed="5.56" length="30.92" width="2.00" shape="274.38,453.01 273.38,452.96 266.15,453.62 253.10,455.57 243.80,457.31">
            <param key="origId" value="31536275"/>
        </lane>
    </edge>
    <edge id="-31536275#2" from="4906521289" to="9659553871" priority="1" type="highway.path">
        <lane id="-31536275#2_0" index="0" allow="pedestrian bicycle" speed="5.56" length="2.96" width="2.00" shape="283.20,452.97 280.24,453.11">
            <param key="origId" value="31536275"/>
        </lane>
    </edge>
    <edge id="-31536275#3" from="4906521297" to="4906521289" priority="1" type="highway.path" shape="324.72,446.23 312.32,447.87 285.11,451.88">
        <lane id="-31536275#3_0" index="0" allow="pedestrian bicycle" speed="5.56" length="35.21" width="2.00" shape="322.97,447.47 312.46,448.86 288.11,452.45">
            <param key="origId" value="31536275"/>
        </lane>
    </edge>
    <edge id="-31536275#4" from="8811003262" to="4906521297" priority="1" type="highway.path" shape="335.93,439.14 331.11,442.51 324.72,446.23">
        <lane id="-31536275#4_0" index="0" allow="pedestrian bicycle" speed="5.56" length="5.32" width="2.00" shape="334.50,441.36 331.65,443.35 330.05,444.28">
            <param key="origId" value="31536275"/>
        </lane>
    </edge>
    <edge id="-499372691#0" from="9659553897" to="4906521294" priority="1" type="highway.path">
        <lane id="-499372691#0_0" index="0" allow="pedestrian bicycle" speed="5.56" length="2.05" width="2.00" shape="240.12,462.56 239.79,460.54">
            <param key="origId" value="499372691"/>
        </lane>
    </edge>
    <edge id="-499372691#1" from="4902236056" to="9659553897" priority="1" type="highway.path" shape="227.16,477.72 236.85,467.45 241.60,465.43">
        <lane id="-499372691#1_0" index="0" allow="pedestrian bicycle" speed="5.56" length="16.63" width="2.00" shape="226.43,477.03 236.27,466.61 238.38,465.71">
            <param key="origId" value="499372691"/>
        </lane>
    </edge>
    <edge id="-499372694#0" from="3008831130" to="4906521435" name="מסלול ריצה" priority="1" type="highway.footway" shape="261.71,576.19 272.31,575.06 279.92,574.17 292.91,570.43 303.66,566.11 312.92,561.62 322.31,558.34 330.99,557.90 342.03,559.24 347.18,560.87 351.74,565.20 356.21,571.93 357.70,580.45 357.56,587.90 355.75,594.46 351.14,602.68 344.87,608.95 338.00,611.94 332.92,612.30 326.96,611.63 316.70,612.57 306.50,615.22 297.09,619.55 284.70,625.07">
        <lane id="-499372694#0_0" index="0" allow="pedestrian" speed="2.78" length="208.17" width="2.00" shape="264.07,574.93 272.20,574.07 279.72,573.19 292.58,569.48 303.25,565.20 312.54,560.69 322.12,557.35 331.03,556.90 342.24,558.26 347.70,559.99 352.51,564.55 357.16,571.55 358.70,580.37 358.56,588.04 356.68,594.84 351.94,603.29 345.44,609.79 338.24,612.93 332.90,613.30 326.95,612.64 316.87,613.56 306.84,616.17 297.50,620.46 285.11,625.98">
            <param key="origId" value="499372694"/>
        </lane>
    </edge>
    <edge id="-499372694#1" from="9659553832" to="3008831130" name="מסלול ריצה" priority="1" type="highway.footway" shape="211.22,567.05 218.56,569.54 232.89,574.01 245.59,575.37 261.71,576.19">
        <lane id="-499372694#1_0" index="0" allow="pedestrian" speed="2.78" length="47.08" width="2.00" shape="212.93,566.57 218.87,568.59 233.09,573.03 245.67,574.37 258.91,575.05">
            <param key="origId" value="499372694"/>
        </lane>
    </edge>
    <edge id="-499372694#2" from="4906521273" to="9659553832" name="מסלול ריצה" priority="1" type="highway.footway">
        <lane id="-499372694#2_0" index="0" allow="pedestrian" speed="2.78" length="1.73" width="2.00" shape="205.83,564.58 207.50,565.03">
            <param key="origId" value="499372694"/>
        </lane>
    </edge>