<?xml version="1.0" encoding="UTF-8"?>

<!-- generated on 2024-07-29 11:30:28 by Eclipse SUMO netedit Version 1.20.0
<configuration xmlns:xsi="http://www.w3.org/2001/XMLSchema-instance" xsi:noNamespaceSchemaLocation="http://sumo.dlr.de/xsd/neteditConfiguration.xsd">

    <input>
        <sumocfg-file value="/Users/eviat/Desktop/Final_Project/Traffic_Tune_Project/Nets/intersection_2/intersection_2.sumocfg"/>
        <route-files value="/Users/eviat/Desktop/Final_Project/Traffic_Tune_Project/Nets/intersection_2/routes_2/intersection_2_random_easy_1.rou.xml"/>
        <sumo-net-file value="/Users/eviat/Desktop/Final_Project/Traffic_Tune_Project/Nets/intersection_2/intersection_2.net.xml"/>
    </input>

    <output>
        <output-file value="/Users/eviat/Desktop/Final_Project/Traffic_Tune_Project/Nets/intersection_2/intersection_2.net.xml"/>
        <output.street-names value="true"/>
    </output>

    <processing>
        <geometry.min-radius.fix.railways value="false"/>
        <geometry.max-grade.fix value="false"/>
        <offset.disable-normalization value="true"/>
        <lefthand value="0"/>
    </processing>

    <junctions>
        <no-turnarounds value="true"/>
        <junctions.corner-detail value="5"/>
        <junctions.limit-turn-speed value="5.50"/>
        <rectangular-lane-cut value="0"/>
    </junctions>

    <pedestrian>
        <walkingareas value="0"/>
    </pedestrian>

</configuration>
-->

<net version="1.20" junctionCornerDetail="5" limitTurnSpeed="5.50" xmlns:xsi="http://www.w3.org/2001/XMLSchema-instance" xsi:noNamespaceSchemaLocation="http://sumo.dlr.de/xsd/net_file.xsd">

    <location netOffset="-3876123.64,-3784455.95" convBoundary="23.34,102.28,673.22,387.70" origBoundary="34.819811,32.160947,34.825907,32.165700" projParameter="+proj=merc +a=6378137 +b=6378137 +lat_ts=0.0 +lon_0=0.0 +x_0=0.0 +y_0=0 +k=1.0 +units=m +nadgrids=@null +wktext +no_defs"/>

    <type id="highway.primary" priority="12" numLanes="2" speed="27.78" disallow="tram rail_urban rail rail_electric rail_fast ship container cable_car subway aircraft wheelchair scooter drone" oneway="0"/>
    <type id="highway.primary_link" priority="7" numLanes="1" speed="22.22" disallow="tram rail_urban rail rail_electric rail_fast ship container cable_car subway aircraft wheelchair scooter drone" oneway="0"/>

    <edge id=":114130298_0" function="internal">
        <lane id=":114130298_0_0" index="0" disallow="tram rail_urban rail rail_electric rail_fast ship container cable_car subway aircraft wheelchair scooter drone" speed="27.78" length="8.21" shape="177.87,169.72 180.12,170.58 181.80,170.82 183.48,171.06 185.74,171.93"/>
        <lane id=":114130298_0_1" index="1" disallow="tram rail_urban rail rail_electric rail_fast ship container cable_car subway aircraft wheelchair scooter drone" speed="27.78" length="8.21" shape="176.42,172.57 178.67,173.43 180.35,173.67 182.03,173.91 184.28,174.78"/>
        <lane id=":114130298_0_2" index="2" disallow="tram rail_urban rail rail_electric rail_fast ship container cable_car subway aircraft wheelchair scooter drone" speed="27.78" length="8.21" shape="174.98,175.43 177.23,176.29 178.90,176.52 180.58,176.76 182.82,177.63"/>
        <lane id=":114130298_0_3" index="3" disallow="tram rail_urban rail rail_electric rail_fast ship container cable_car subway aircraft wheelchair scooter drone" speed="27.78" length="8.21" shape="174.98,175.43 177.00,176.73 178.17,177.95 179.35,179.16 181.36,180.47"/>
    </edge>
    <edge id=":2252682316_0" function="internal">
        <lane id=":2252682316_0_0" index="0" disallow="tram rail_urban rail rail_electric rail_fast ship container cable_car subway aircraft wheelchair scooter drone" speed="27.78" length="8.21" shape="269.88,214.97 272.12,215.84 273.80,216.08 275.48,216.32 277.72,217.19"/>
        <lane id=":2252682316_0_1" index="1" disallow="tram rail_urban rail rail_electric rail_fast ship container cable_car subway aircraft wheelchair scooter drone" speed="27.78" length="8.21" shape="269.88,214.97 271.90,216.29 273.07,217.51 274.25,218.73 276.27,220.04"/>
        <lane id=":2252682316_0_2" index="2" disallow="tram rail_urban rail rail_electric rail_fast ship container cable_car subway aircraft wheelchair scooter drone" speed="27.78" length="8.21" shape="268.42,217.82 270.44,219.14 271.61,220.36 272.79,221.58 274.81,222.89"/>
        <lane id=":2252682316_0_3" index="3" disallow="tram rail_urban rail rail_electric rail_fast ship container cable_car subway aircraft wheelchair scooter drone" speed="27.78" length="8.21" shape="266.96,220.67 268.98,221.99 270.16,223.21 271.33,224.43 273.36,225.74"/>
        <lane id=":2252682316_0_4" index="4" disallow="tram rail_urban rail rail_electric rail_fast ship container cable_car subway aircraft wheelchair scooter drone" speed="27.78" length="8.21" shape="265.50,223.52 267.52,224.84 268.70,226.06 269.88,227.28 271.90,228.59"/>
    </edge>
    <edge id=":J2_0" function="internal">
        <lane id=":J2_0_0" index="0" speed="18.60" length="14.81" shape="363.84,335.69 365.45,331.37 365.86,327.87 365.62,324.66 365.30,321.21"/>
    </edge>
    <edge id=":J2_1" function="internal">
        <lane id=":J2_1_0" index="0" speed="22.22" length="20.02" shape="363.84,335.69 372.75,317.71"/>
        <lane id=":J2_1_1" index="1" speed="22.22" length="20.02" shape="366.72,337.09 375.59,319.19"/>
    </edge>
    <edge id=":J3_0" function="internal">
        <lane id=":J3_0_0" index="0" disallow="tram rail_urban rail rail_electric rail_fast ship container cable_car subway aircraft wheelchair scooter drone" speed="19.72" length="15.88" shape="356.63,296.00 354.42,293.46 352.58,291.00 350.24,288.60 346.51,286.20"/>
        <lane id=":J3_0_1" index="1" disallow="tram rail_urban rail rail_electric rail_fast ship container cable_car subway aircraft wheelchair scooter drone" speed="19.72" length="15.88" shape="356.63,296.00 354.72,293.05 353.51,289.68 351.70,286.31 347.97,283.35"/>
        <lane id=":J3_0_2" index="2" disallow="tram rail_urban rail rail_electric rail_fast ship container cable_car subway aircraft wheelchair scooter drone" speed="19.72" length="15.88" shape="356.63,296.00 355.06,292.66 354.54,288.41 353.26,284.08 349.43,280.51"/>
    </edge>
    <edge id=":J3_3" function="internal">
        <lane id=":J3_3_0" index="0" disallow="tram rail_urban rail rail_electric rail_fast ship container cable_car subway aircraft wheelchair scooter drone" speed="19.44" length="14.37" shape="359.59,292.46 346.51,286.20"/>
        <lane id=":J3_3_1" index="1" disallow="tram rail_urban rail rail_electric rail_fast ship container cable_car subway aircraft wheelchair scooter drone" speed="19.44" length="14.37" shape="360.97,289.57 347.97,283.35"/>
        <lane id=":J3_3_2" index="2" disallow="tram rail_urban rail rail_electric rail_fast ship container cable_car subway aircraft wheelchair scooter drone" speed="19.44" length="14.37" shape="362.35,286.68 349.43,280.51"/>
        <lane id=":J3_3_3" index="3" disallow="tram rail_urban rail rail_electric rail_fast ship container cable_car subway aircraft wheelchair scooter drone" speed="19.44" length="14.37" shape="363.73,283.80 350.89,277.66"/>
    </edge>
    <edge id=":cluster8991421878_8991421879_cluster2252682318_2252682322_385041476_cluster_10599613510_114130311_0" function="internal">
        <lane id=":cluster8991421878_8991421879_cluster2252682318_2252682322_385041476_cluster_10599613510_114130311_0_0" index="0" disallow="tram rail_urban rail rail_electric rail_fast ship container cable_car subway aircraft wheelchair scooter drone" speed="9.27" length="19.38" shape="408.59,317.75 401.57,314.98 396.23,313.74 392.57,314.01 390.58,315.81"/>
    </edge>
    <edge id=":cluster8991421878_8991421879_cluster2252682318_2252682322_385041476_cluster_10599613510_114130311_1" function="internal">
        <lane id=":cluster8991421878_8991421879_cluster2252682318_2252682322_385041476_cluster_10599613510_114130311_1_0" index="0" disallow="tram rail_urban rail rail_electric rail_fast ship container cable_car subway aircraft wheelchair scooter drone" speed="23.61" length="37.33" shape="408.59,317.75 375.54,300.09"/>
        <lane id=":cluster8991421878_8991421879_cluster2252682318_2252682322_385041476_cluster_10599613510_114130311_1_1" index="1" disallow="tram rail_urban rail rail_electric rail_fast ship container cable_car subway aircraft wheelchair scooter drone" speed="23.61" length="37.33" shape="409.89,314.82 376.92,297.21"/>
        <lane id=":cluster8991421878_8991421879_cluster2252682318_2252682322_385041476_cluster_10599613510_114130311_1_2" index="2" disallow="tram rail_urban rail rail_electric rail_fast ship container cable_car subway aircraft wheelchair scooter drone" speed="23.61" length="37.33" shape="411.19,311.90 378.31,294.32"/>
        <lane id=":cluster8991421878_8991421879_cluster2252682318_2252682322_385041476_cluster_10599613510_114130311_1_3" index="3" disallow="tram rail_urban rail rail_electric rail_fast ship container cable_car subway aircraft wheelchair scooter drone" speed="23.61" length="37.33" shape="412.49,308.97 379.69,291.43"/>
    </edge>
    <edge id=":cluster8991421878_8991421879_cluster2252682318_2252682322_385041476_cluster_10599613510_114130311_5" function="internal">
        <lane id=":cluster8991421878_8991421879_cluster2252682318_2252682322_385041476_cluster_10599613510_114130311_5_0" index="0" disallow="tram rail_urban rail rail_electric rail_fast ship container cable_car subway aircraft wheelchair scooter drone" speed="27.78" length="36.79" shape="388.23,273.60 420.19,291.63"/>
        <lane id=":cluster8991421878_8991421879_cluster2252682318_2252682322_385041476_cluster_10599613510_114130311_5_1" index="1" disallow="tram rail_urban rail rail_electric rail_fast ship container cable_car subway aircraft wheelchair scooter drone" speed="27.78" length="36.79" shape="386.84,276.48 418.89,294.55"/>
        <lane id=":cluster8991421878_8991421879_cluster2252682318_2252682322_385041476_cluster_10599613510_114130311_5_2" index="2" disallow="tram rail_urban rail rail_electric rail_fast ship container cable_car subway aircraft wheelchair scooter drone" speed="27.78" length="36.79" shape="385.46,279.37 417.59,297.47"/>
    </edge>
    <edge id=":cluster8991421878_8991421879_cluster2252682318_2252682322_385041476_cluster_10599613510_114130311_8" function="internal">
        <lane id=":cluster8991421878_8991421879_cluster2252682318_2252682322_385041476_cluster_10599613510_114130311_8_0" index="0" disallow="tram rail_urban rail rail_electric rail_fast ship container cable_car subway aircraft wheelchair scooter drone" speed="13.04" length="38.42" shape="384.08,282.26 391.13,287.61 394.56,294.98 394.38,304.38 390.58,315.81"/>
        <lane id=":cluster8991421878_8991421879_cluster2252682318_2252682322_385041476_cluster_10599613510_114130311_8_1" index="1" disallow="tram rail_urban rail rail_electric rail_fast ship container cable_car subway aircraft wheelchair scooter drone" speed="12.18" length="33.39" shape="382.70,285.14 388.59,289.71 391.39,296.13 391.08,304.39 387.66,314.49"/>
    </edge>
    <edge id=":cluster8991421878_8991421879_cluster2252682318_2252682322_385041476_cluster_10599613510_114130311_10" function="internal">
        <lane id=":cluster8991421878_8991421879_cluster2252682318_2252682322_385041476_cluster_10599613510_114130311_10_0" index="0" disallow="tram rail_urban rail rail_electric rail_fast ship container cable_car subway aircraft wheelchair scooter drone" speed="15.02" length="50.18" shape="376.94,309.66 384.91,298.44 394.55,292.18 405.88,290.88 418.89,294.55"/>
        <lane id=":cluster8991421878_8991421879_cluster2252682318_2252682322_385041476_cluster_10599613510_114130311_10_1" index="1" disallow="tram rail_urban rail rail_electric rail_fast ship container cable_car subway aircraft wheelchair scooter drone" speed="14.26" length="45.10" shape="379.86,310.97 387.01,300.92 395.69,295.31 405.88,294.17 417.59,297.47"/>
    </edge>

    <edge id="1047696856" from="114130298" to="2252682316" name="שדרות שבעת הכוכבים" priority="12" type="highway.primary" spreadType="center">
        <lane id="1047696856_0" index="0" disallow="tram rail_urban rail rail_electric rail_fast ship container cable_car subway aircraft wheelchair scooter drone" speed="27.78" length="94.51" shape="185.74,171.93 269.88,214.97">
            <param key="origId" value="1047696856"/>
        </lane>
        <lane id="1047696856_1" index="1" disallow="tram rail_urban rail rail_electric rail_fast ship container cable_car subway aircraft wheelchair scooter drone" speed="27.78" length="94.51" shape="184.28,174.78 268.42,217.82">
            <param key="origId" value="1047696856"/>
        </lane>
        <lane id="1047696856_2" index="2" disallow="tram rail_urban rail rail_electric rail_fast ship container cable_car subway aircraft wheelchair scooter drone" speed="27.78" length="94.51" shape="182.82,177.63 266.96,220.67">
            <param key="origId" value="1047696856"/>
        </lane>
        <lane id="1047696856_3" index="3" disallow="tram rail_urban rail rail_electric rail_fast ship container cable_car subway aircraft wheelchair scooter drone" speed="27.78" length="94.51" shape="181.36,180.47 265.50,223.52">
            <param key="origId" value="1047696856"/>
        </lane>
        <param key="ref" value="541"/>
    </edge>
    <edge id="215834169" from="1261680371" to="114130298" name="שדרות שבעת הכוכבים" priority="12" type="highway.primary" spreadType="center">
        <lane id="215834169_0" index="0" disallow="tram rail_urban rail rail_electric rail_fast ship container cable_car subway aircraft wheelchair scooter drone" speed="27.78" length="155.69" shape="38.94,99.42 177.87,169.72">
            <param key="origId" value="215834169"/>
        </lane>
        <lane id="215834169_1" index="1" disallow="tram rail_urban rail rail_electric rail_fast ship container cable_car subway aircraft wheelchair scooter drone" speed="27.78" length="155.69" shape="37.50,102.28 176.42,172.57">
            <param key="origId" value="215834169"/>
        </lane>
        <lane id="215834169_2" index="2" disallow="tram rail_urban rail rail_electric rail_fast ship container cable_car subway aircraft wheelchair scooter drone" speed="27.78" length="155.69" shape="36.06,105.14 174.98,175.43">
            <param key="origId" value="215834169"/>
        </lane>
        <param key="ref" value="541"/>
    </edge>
    <edge id="215834183" from="cluster8991421878_8991421879_cluster2252682318_2252682322_385041476_cluster_10599613510_114130311" to="J3" name="שדרות שבעת הכוכבים" priority="12" type="highway.primary" spreadType="center" shape="379.53,296.68 348.71,281.93">
        <lane id="215834183_0" index="0" disallow="tram rail_urban rail rail_electric rail_fast ship container cable_car subway aircraft wheelchair scooter drone" speed="19.44" length="17.69" shape="375.54,300.09 359.59,292.46">
            <param key="origId" value="215834183 741765613"/>
        </lane>
        <lane id="215834183_1" index="1" disallow="tram rail_urban rail rail_electric rail_fast ship container cable_car subway aircraft wheelchair scooter drone" speed="19.44" length="17.69" shape="376.92,297.21 360.97,289.57">
            <param key="origId" value="215834183 741765613"/>
        </lane>
        <lane id="215834183_2" index="2" disallow="tram rail_urban rail rail_electric rail_fast ship container cable_car subway aircraft wheelchair scooter drone" speed="19.44" length="17.69" shape="378.31,294.32 362.35,286.68">
            <param key="origId" value="215834183 741765613"/>
        </lane>
        <lane id="215834183_3" index="3" disallow="tram rail_urban rail rail_electric rail_fast ship container cable_car subway aircraft wheelchair scooter drone" speed="19.44" length="17.69" shape="379.69,291.43 363.73,283.80">
            <param key="origId" value="215834183 741765613"/>
        </lane>
        <param key="origFrom" value="114130311"/>
        <param key="ref" value="541"/>
    </edge>
    <edge id="215834183.33" from="J3" to="9634015111" name="שדרות שבעת הכוכבים" priority="12" type="highway.primary" spreadType="center" shape="348.70,281.93 98.47,153.96 23.34,115.84">
        <lane id="215834183.33_0" index="0" disallow="tram rail_urban rail rail_electric rail_fast ship container cable_car subway aircraft wheelchair scooter drone" speed="19.44" length="365.30" shape="346.51,286.20 96.29,158.24 21.17,120.12">
            <param key="origId" value="215834183 741765613"/>
        </lane>
        <lane id="215834183.33_1" index="1" disallow="tram rail_urban rail rail_electric rail_fast ship container cable_car subway aircraft wheelchair scooter drone" speed="19.44" length="365.30" shape="347.97,283.35 97.74,155.39 22.62,117.27">
            <param key="origId" value="215834183 741765613"/>
        </lane>
        <lane id="215834183.33_2" index="2" disallow="tram rail_urban rail rail_electric rail_fast ship container cable_car subway aircraft wheelchair scooter drone" speed="19.44" length="365.30" shape="349.43,280.51 99.20,152.53 24.06,114.41">
            <param key="origId" value="215834183 741765613"/>
        </lane>
        <lane id="215834183.33_3" index="3" disallow="tram rail_urban rail rail_electric rail_fast ship container cable_car subway aircraft wheelchair scooter drone" speed="19.44" length="365.30" shape="350.89,277.66 100.65,149.68 25.51,111.56">
            <param key="origId" value="215834183 741765613"/>
        </lane>
        <param key="origFrom" value="114130311"/>
        <param key="ref" value="541"/>
    </edge>
    <edge id="215834190#1" from="cluster8991421878_8991421879_cluster2252682318_2252682322_385041476_cluster_10599613510_114130311" to="114130305" name="שדרות שבעת הכוכבים" priority="12" type="highway.primary" spreadType="center" shape="418.89,294.55 485.55,324.14 499.25,329.52 515.78,334.90 532.26,339.29 551.15,343.22 570.48,346.03 596.37,347.84 625.33,348.43 646.12,347.42 673.22,345.16">
        <lane id="215834190#1_0" index="0" disallow="tram rail_urban rail rail_electric rail_fast ship container cable_car subway aircraft wheelchair scooter drone" speed="27.78" length="263.84" shape="420.19,291.63 486.78,321.19 500.33,326.51 516.69,331.83 533.00,336.18 551.71,340.07 570.82,342.85 596.51,344.64 625.28,345.23 645.91,344.23 672.95,341.97">
            <param key="origId" value="215834190"/>
        </lane>
        <lane id="215834190#1_1" index="1" disallow="tram rail_urban rail rail_electric rail_fast ship container cable_car subway aircraft wheelchair scooter drone" speed="27.78" length="263.84" shape="418.89,294.55 485.55,324.14 499.25,329.52 515.78,334.90 532.26,339.29 551.15,343.22 570.48,346.03 596.37,347.84 625.33,348.43 646.12,347.42 673.22,345.16">
            <param key="origId" value="215834190"/>
        </lane>
        <lane id="215834190#1_2" index="2" disallow="tram rail_urban rail rail_electric rail_fast ship container cable_car subway aircraft wheelchair scooter drone" speed="27.78" length="263.84" shape="417.59,297.47 484.32,327.09 498.17,332.53 514.87,337.97 531.52,342.40 550.59,346.37 570.14,349.21 596.23,351.04 625.38,351.63 646.33,350.61 673.49,348.35">
            <param key="origId" value="215834190"/>
        </lane>
        <param key="ref" value="541"/>
    </edge>
    <edge id="30131289" from="8942030159" to="7772839607" priority="7" type="highway.primary_link" spreadType="center" shape="645.59,371.21 630.56,375.21 615.98,378.62 567.82,387.70">
        <lane id="30131289_0" index="0" disallow="tram rail_urban rail rail_electric rail_fast ship container cable_car subway aircraft wheelchair scooter drone" speed="22.22" length="79.54" shape="645.59,371.21 630.56,375.21 615.98,378.62 567.82,387.70">
            <param key="origId" value="30131289"/>
        </lane>
    </edge>
    <edge id="E0" from="cluster8991421878_8991421879_cluster2252682318_2252682322_385041476_cluster_10599613510_114130311" to="J0" priority="9" shape="387.85,310.18 375.38,337.87 362.19,367.15">
        <lane id="E0_0" index="0" speed="22.22" length="58.47" shape="390.58,315.81 379.76,339.84 366.57,369.12"/>
        <lane id="E0_1" index="1" speed="22.22" length="58.47" shape="387.66,314.49 376.84,338.53 363.65,367.81"/>
    </edge>
    <edge id="E1" from="J1" to="J2" priority="9" shape="355.08,364.54 372.12,329.69">
        <lane id="E1_0" index="0" speed="22.22" length="29.77" shape="350.77,362.43 363.84,335.69"/>
        <lane id="E1_1" index="1" speed="22.22" length="29.77" shape="353.64,363.84 366.72,337.09"/>
    </edge>
    <edge id="E2" from="J2" to="J3" priority="7" shape="367.27,329.26 366.67,316.13 364.99,306.31 362.89,300.93 359.57,296.62 355.85,293.02 348.54,281.98">
        <lane id="E2_0" index="0" speed="20.00" length="27.52" shape="365.30,321.21 365.08,316.30 363.44,306.74 361.48,301.73 358.37,297.69 356.63,296.00"/>
    </edge>
    <edge id="E_NW" from="8942030162" to="cluster8991421878_8991421879_cluster2252682318_2252682322_385041476_cluster_10599613510_114130311" name="שדרות שבעת הכוכבים" priority="12" type="highway.primary" spreadType="center" shape="652.64,365.45 631.92,366.90 604.42,367.12 574.21,365.40 547.04,362.33 526.39,358.24 509.87,354.34 494.51,349.66 477.88,343.55 410.25,313.23">
        <lane id="E_NW_0" index="0" disallow="tram rail_urban rail rail_electric rail_fast ship container cable_car subway aircraft wheelchair scooter drone" speed="27.78" length="251.47" shape="652.98,370.24 632.11,371.70 604.30,371.92 573.80,370.18 546.30,367.08 525.37,362.93 508.62,358.98 492.98,354.21 476.07,348.00 408.59,317.75">
            <param key="origId" value="5066149 971472782"/>
        </lane>
        <lane id="E_NW_1" index="1" disallow="tram rail_urban rail rail_electric rail_fast ship container cable_car subway aircraft wheelchair scooter drone" speed="27.78" length="251.47" shape="652.75,367.05 631.98,368.50 604.38,368.72 574.07,366.99 546.79,363.91 526.05,359.80 509.45,355.89 494.00,351.18 477.28,345.03 409.89,314.82">
            <param key="origId" value="5066149 971472782"/>
        </lane>
        <lane id="E_NW_2" index="2" disallow="tram rail_urban rail rail_electric rail_fast ship container cable_car subway aircraft wheelchair scooter drone" speed="27.78" length="251.47" shape="652.53,363.85 631.86,365.30 604.46,365.52 574.35,363.81 547.29,360.75 526.73,356.68 510.29,352.79 495.02,348.14 478.48,342.07 411.19,311.90">
            <param key="origId" value="5066149 971472782"/>
        </lane>
        <lane id="E_NW_3" index="3" disallow="tram rail_urban rail rail_electric rail_fast ship container cable_car subway aircraft wheelchair scooter drone" speed="27.78" length="251.47" shape="652.30,360.66 631.73,362.10 604.54,362.32 574.62,360.62 547.78,357.58 527.41,353.55 511.12,349.70 496.04,345.11 479.69,339.10 412.49,308.97">
            <param key="origId" value="5066149 971472782"/>
        </lane>
        <param key="ref" value="541"/>
    </edge>
    <edge id="N_E" from="J2" to="cluster8991421878_8991421879_cluster2252682318_2252682322_385041476_cluster_10599613510_114130311" priority="9" shape="372.05,329.45 383.32,307.79">
        <lane id="N_E_0" index="0" speed="22.22" length="9.17" shape="372.75,317.71 376.94,309.66"/>
        <lane id="N_E_1" index="1" speed="22.22" length="9.17" shape="375.59,319.19 379.86,310.97"/>
    </edge>
    <edge id="W_EN" from="2252682316" to="cluster8991421878_8991421879_cluster2252682318_2252682322_385041476_cluster_10599613510_114130311" name="שדרות שבעת הכוכבים" priority="12" type="highway.primary" spreadType="center" shape="271.25,221.07 333.87,253.06 364.47,269.08 388.24,280.73">
        <lane id="W_EN_0" index="0" disallow="tram rail_urban rail rail_electric rail_fast ship container cable_car subway aircraft wheelchair scooter drone" speed="27.78" length="124.24" shape="277.72,217.19 336.81,247.38 367.36,263.37 388.23,273.60">
            <param key="origId" value="215834154"/>
        </lane>
        <lane id="W_EN_1" index="1" disallow="tram rail_urban rail rail_electric rail_fast ship container cable_car subway aircraft wheelchair scooter drone" speed="27.78" length="124.24" shape="276.27,220.04 335.34,250.22 365.92,266.23 386.84,276.48">
            <param key="origId" value="215834154"/>
        </lane>
        <lane id="W_EN_2" index="2" disallow="tram rail_urban rail rail_electric rail_fast ship container cable_car subway aircraft wheelchair scooter drone" speed="27.78" length="124.24" shape="274.81,222.89 333.87,253.06 364.47,269.08 385.46,279.37">
            <param key="origId" value="215834154"/>
        </lane>
        <lane id="W_EN_3" index="3" disallow="tram rail_urban rail rail_electric rail_fast ship container cable_car subway aircraft wheelchair scooter drone" speed="27.78" length="124.24" shape="273.36,225.74 332.40,255.90 363.02,271.93 384.08,282.26">
            <param key="origId" value="215834154"/>
        </lane>
        <lane id="W_EN_4" index="4" disallow="tram rail_urban rail rail_electric rail_fast ship container cable_car subway aircraft wheelchair scooter drone" speed="27.78" length="124.24" shape="271.90,228.59 330.93,258.74 361.58,274.79 382.70,285.14">
            <param key="origId" value="215834154"/>
        </lane>
        <param key="ref" value="541"/>
    </edge>

    <tlLogic id="2_tls" type="actuated" programID="0" offset="0">
        <phase duration="33" state="GGGGGGGGrrrr" minDur="13" maxDur="50"/>
        <phase duration="6"  state="yyyyyGGGrrrr"/>
        <phase duration="6"  state="rrrrrGGGGGrr" minDur="13" maxDur="50"/>
        <phase duration="6"  state="rrrrryyyyyrr"/>
        <phase duration="33" state="GrrrrrrrrrGG" minDur="10" maxDur="50"/>
        <phase duration="6"  state="Grrrrrrrrryy"/>
    </tlLogic>

    <junction id="114130298" type="priority" x="179.99" y="174.38" incLanes="215834169_0 215834169_1 215834169_2" intLanes=":114130298_0_0 :114130298_0_1 :114130298_0_2 :114130298_0_3" shape="180.64,181.90 186.47,170.50 183.62,169.51 181.44,169.27 180.19,168.97 178.59,168.29 174.25,176.86 176.72,178.57 178.18,180.18 179.16,181.01">
        <request index="0" response="0000" foes="0000" cont="0"/>
        <request index="1" response="0000" foes="0000" cont="0"/>
        <request index="2" response="0000" foes="0000" cont="0"/>
        <request index="3" response="0000" foes="0000" cont="0"/>
    </junction>
    <junction id="114130305" type="dead_end" x="673.22" y="345.16" incLanes="215834190#1_0 215834190#1_1 215834190#1_2" intLanes="" shape="672.82,340.38 673.62,349.94"/>
    <junction id="1261680371" type="dead_end" x="37.50" y="102.28" incLanes="" intLanes="" shape="35.33,106.56 39.67,98.00"/>
    <junction id="2252682316" type="priority" x="271.25" y="221.07" incLanes="1047696856_0 1047696856_1 1047696856_2 1047696856_3" intLanes=":2252682316_0_0 :2252682316_0_1 :2252682316_0_2 :2252682316_0_3 :2252682316_0_4" shape="271.17,230.01 278.45,215.77 275.61,214.78 273.44,214.54 272.19,214.23 270.60,213.55 264.77,224.95 267.24,226.67 268.71,228.29 269.69,229.12">
        <request index="0" response="00000" foes="00000" cont="0"/>
        <request index="1" response="00000" foes="00000" cont="0"/>
        <request index="2" response="00000" foes="00000" cont="0"/>
        <request index="3" response="00000" foes="00000" cont="0"/>
        <request index="4" response="00000" foes="00000" cont="0"/>
    </junction>
    <junction id="7772839607" type="dead_end" x="567.82" y="387.70" incLanes="30131289_0" intLanes="" shape="568.12,389.27 567.52,386.13"/>
    <junction id="8942030159" type="dead_end" x="645.59" y="371.21" incLanes="" intLanes="" shape="645.18,369.66 646.00,372.76"/>
    <junction id="8942030162" type="dead_end" x="652.64" y="365.45" incLanes="" intLanes="" shape="652.19,359.07 653.09,371.83"/>
    <junction id="9634015111" type="dead_end" x="23.34" y="115.84" incLanes="215834183.33_0 215834183.33_1 215834183.33_2 215834183.33_3" intLanes="" shape="20.44,121.55 26.24,110.13"/>
    <junction id="J0" type="dead_end" x="362.19" y="367.15" incLanes="E0_0 E0_1" intLanes="" shape="368.03,369.78 362.19,367.15"/>
    <junction id="J1" type="dead_end" x="355.08" y="364.54" incLanes="" intLanes="" shape="355.08,364.54 349.33,361.73"/>
    <junction id="J2" type="priority" x="372.90" y="330.32" incLanes="E1_0 E1_1" intLanes=":J2_0_0 :J2_1_0 :J2_1_1" shape="377.00,319.93 371.33,316.97 370.02,319.36 368.95,321.06 368.10,322.09 367.47,322.45 367.07,322.13 366.90,321.14 363.70,321.28 363.93,324.26 364.18,326.52 364.31,328.39 364.16,330.21 363.57,332.30 362.41,334.98 368.16,337.80">
        <request index="0" response="000" foes="000" cont="0"/>
        <request index="1" response="000" foes="000" cont="0"/>
        <request index="2" response="000" foes="000" cont="0"/>
    </junction>
    <junction id="J3" type="priority" x="348.64" y="281.87" incLanes="E2_0 215834183_0 215834183_1 215834183_2 215834183_3" intLanes=":J3_0_0 :J3_0_1 :J3_0_2 :J3_3_0 :J3_3_1 :J3_3_2 :J3_3_3" shape="355.27,296.91 358.00,295.10 358.90,293.90 364.42,282.36 351.61,276.23 345.79,287.63 348.21,289.04 349.81,290.35 350.95,291.67 352.00,293.13 353.32,294.83">
        <request index="0" response="1111000" foes="1111000" cont="0"/>
        <request index="1" response="1111000" foes="1111000" cont="0"/>
        <request index="2" response="1111000" foes="1111000" cont="0"/>
        <request index="3" response="0000000" foes="0000111" cont="0"/>
        <request index="4" response="0000000" foes="0000111" cont="0"/>
        <request index="5" response="0000000" foes="0000111" cont="0"/>
        <request index="6" response="0000000" foes="0000111" cont="0"/>
    </junction>