<?xml version="1.0" encoding="UTF-8"?>

<!-- generated on 2024-07-29 11:28:44 by Eclipse SUMO netedit Version 1.20.0
-->

<routes xmlns:xsi="http://www.w3.org/2001/XMLSchema-instance" xsi:noNamespaceSchemaLocation="http://sumo.dlr.de/xsd/routes_file.xsd">
    <!-- Routes -->
    <route id="E_W" edges="E_NW 215834183 215834183.33"/>
    <route id="N_E" edges="E1 N_E 215834190#1"/>
    <route id="N_W" edges="E1 E2 215834183.33"/>
    <route id="W_E" edges="215834169 1047696856 W_EN 215834190#1"/>
    <route id="W_N" edges="215834169 1047696856 W_EN E0"/>
</routes>
