<?xml version="1.0" encoding="UTF-8"?>

<!-- generated on 2024-07-17 23:54:49 by Eclipse SUMO sumo Version 1.20.0
-->

<configuration xmlns:xsi="http://www.w3.org/2001/XMLSchema-instance" xsi:noNamespaceSchemaLocation="http://sumo.dlr.de/xsd/sumoConfiguration.xsd">

    <input>
        <net-file value="intersection_5.net.xml"/>
        <route-files value="routes_5_hour/intersection_5_16_17_.rou.xml"/>
    </input>

</configuration>
