<?xml version="1.0" encoding="UTF-8"?>

<!-- generated on 2024-07-29 10:16:33 by Eclipse SUMO netedit Version 1.20.0
<configuration xmlns:xsi="http://www.w3.org/2001/XMLSchema-instance" xsi:noNamespaceSchemaLocation="http://sumo.dlr.de/xsd/neteditConfiguration.xsd">

    <input>
        <sumo-net-file value="/Users/eviat/Desktop/Final_Project/Traffic_Tune_Project/Nets/intersection_5/intersection_5.net.xml"/>
    </input>

    <output>
        <output-file value="/Users/eviat/Desktop/Final_Project/Traffic_Tune_Project/Nets/intersection_5/intersection_5.net.xml"/>
        <output.street-names value="true"/>
    </output>

    <processing>
        <geometry.min-radius.fix.railways value="false"/>
        <geometry.max-grade.fix value="false"/>
        <offset.disable-normalization value="true"/>
        <lefthand value="0"/>
    </processing>

    <junctions>
        <no-turnarounds value="true"/>
        <junctions.corner-detail value="5"/>
        <junctions.limit-turn-speed value="5.50"/>
        <rectangular-lane-cut value="0"/>
    </junctions>

    <pedestrian>
        <walkingareas value="0"/>
    </pedestrian>

</configuration>
-->

<net version="1.20" junctionCornerDetail="5" limitTurnSpeed="5.50" xmlns:xsi="http://www.w3.org/2001/XMLSchema-instance" xsi:noNamespaceSchemaLocation="http://sumo.dlr.de/xsd/net_file.xsd">

    <location netOffset="-3874585.55,-3783856.71" convBoundary="350.80,44.43,891.16,1070.21" origBoundary="34.805994,32.156389,34.815652,32.164679" projParameter="+proj=merc +a=6378137 +b=6378137 +lat_ts=0.0 +lon_0=0.0 +x_0=0.0 +y_0=0 +k=1.0 +units=m +nadgrids=@null +wktext +no_defs"/>

    <type id="highway.motorway_link" priority="9" numLanes="1" speed="22.22" allow="private emergency authority army vip passenger hov taxi bus coach delivery truck trailer motorcycle evehicle custom1 custom2" oneway="1"/>
    <type id="highway.primary" priority="12" numLanes="2" speed="27.78" disallow="tram rail_urban rail rail_electric rail_fast ship container cable_car subway aircraft wheelchair scooter drone" oneway="0"/>

    <edge id=":1264117732_0" function="internal">
        <lane id=":1264117732_0_0" index="0" allow="private emergency authority army vip passenger hov taxi bus coach delivery truck trailer motorcycle evehicle custom1 custom2" speed="22.22" length="3.49" shape="580.98,415.76 583.00,418.67"/>
        <lane id=":1264117732_0_1" index="1" allow="private emergency authority army vip passenger hov taxi bus coach delivery truck trailer motorcycle evehicle custom1 custom2" speed="22.22" length="3.49" shape="578.39,417.64 580.35,420.46"/>
    </edge>
    <edge id=":1264117732_2" function="internal">
        <lane id=":1264117732_2_0" index="0" allow="private emergency authority army vip passenger hov taxi bus coach delivery truck trailer motorcycle evehicle custom1 custom2" speed="22.22" length="3.23" shape="575.79,419.51 577.76,422.21"/>
        <lane id=":1264117732_2_1" index="1" allow="private emergency authority army vip passenger hov taxi bus coach delivery truck trailer motorcycle evehicle custom1 custom2" speed="22.22" length="3.23" shape="573.20,421.39 575.10,424.00"/>
        <lane id=":1264117732_2_2" index="2" allow="private emergency authority army vip passenger hov taxi bus coach delivery truck trailer motorcycle evehicle custom1 custom2" speed="22.22" length="3.23" shape="570.61,423.26 572.45,425.79"/>
    </edge>
    <edge id=":1264117763_0" function="internal">
        <lane id=":1264117763_0_0" index="0" allow="private emergency authority army vip passenger hov taxi bus coach delivery truck trailer motorcycle evehicle custom1 custom2" speed="22.22" length="0.24" shape="668.48,551.03 668.46,551.09 668.45,551.14 668.44,551.19 668.44,551.26"/>
    </edge>
    <edge id=":1264117778_0" function="internal">
        <lane id=":1264117778_0_0" index="0" allow="private emergency authority army vip passenger hov taxi bus coach delivery truck trailer motorcycle evehicle custom1 custom2" speed="22.22" length="16.50" shape="668.72,573.83 669.46,577.28 670.41,580.65 671.79,584.53 673.81,589.48"/>
    </edge>
    <edge id=":1264117778_1" function="internal">
        <lane id=":1264117778_1_0" index="0" allow="private emergency authority army vip passenger hov taxi bus coach delivery truck trailer motorcycle evehicle custom1 custom2" speed="22.22" length="16.50" shape="665.39,575.17 666.69,578.44 667.72,581.80 668.95,585.73 670.86,590.73"/>
    </edge>
    <edge id=":172824408-AddedOffRampNode_0" function="internal">
        <lane id=":172824408-AddedOffRampNode_0_0" index="0" allow="private emergency authority army vip passenger hov taxi bus coach delivery truck trailer motorcycle evehicle custom1 custom2" speed="22.22" length="8.73" shape="515.78,336.50 518.12,338.12 520.67,337.90 523.23,337.67 525.62,339.25"/>
        <lane id=":172824408-AddedOffRampNode_0_1" index="1" allow="private emergency authority army vip passenger hov taxi bus coach delivery truck trailer motorcycle evehicle custom1 custom2" speed="22.22" length="8.73" shape="515.78,336.50 517.59,338.22 519.38,338.83 521.18,339.43 523.03,341.13"/>
        <lane id=":172824408-AddedOffRampNode_0_2" index="2" allow="private emergency authority army vip passenger hov taxi bus coach delivery truck trailer motorcycle evehicle custom1 custom2" speed="22.22" length="8.73" shape="515.78,336.50 520.44,343.00"/>
        <lane id=":172824408-AddedOffRampNode_0_3" index="3" allow="private emergency authority army vip passenger hov taxi bus coach delivery truck trailer motorcycle evehicle custom1 custom2" speed="22.22" length="8.73" shape="513.18,338.37 517.84,344.88"/>
        <lane id=":172824408-AddedOffRampNode_0_4" index="4" allow="private emergency authority army vip passenger hov taxi bus coach delivery truck trailer motorcycle evehicle custom1 custom2" speed="22.22" length="8.73" shape="510.59,340.24 515.25,346.75"/>
    </edge>
    <edge id=":1905958403_0" function="internal">
        <lane id=":1905958403_0_0" index="0" allow="private emergency authority army vip passenger hov taxi bus coach delivery truck trailer motorcycle evehicle custom1 custom2" speed="22.22" length="8.18" shape="745.85,814.83 746.87,817.00 747.93,818.32 749.01,819.62 750.10,821.77"/>
    </edge>
    <edge id=":3273365394_0" function="internal">
        <lane id=":3273365394_0_0" index="0" disallow="tram rail_urban rail rail_electric rail_fast ship container cable_car subway aircraft wheelchair scooter drone" speed="27.78" length="1.74" shape="802.94,532.79 802.68,531.15"/>
        <lane id=":3273365394_0_1" index="1" disallow="tram rail_urban rail rail_electric rail_fast ship container cable_car subway aircraft wheelchair scooter drone" speed="27.78" length="1.74" shape="803.30,529.61 802.94,527.96"/>
        <lane id=":3273365394_0_2" index="2" disallow="tram rail_urban rail rail_electric rail_fast ship container cable_car subway aircraft wheelchair scooter drone" speed="27.78" length="1.74" shape="803.66,526.43 803.21,524.77"/>
        <lane id=":3273365394_0_3" index="3" disallow="tram rail_urban rail rail_electric rail_fast ship container cable_car subway aircraft wheelchair scooter drone" speed="27.78" length="1.74" shape="804.02,523.25 803.48,521.59"/>
        <lane id=":3273365394_0_4" index="4" disallow="tram rail_urban rail rail_electric rail_fast ship container cable_car subway aircraft wheelchair scooter drone" speed="27.78" length="1.74" shape="804.38,520.07 803.75,518.40"/>
        <lane id=":3273365394_0_5" index="5" disallow="tram rail_urban rail rail_electric rail_fast ship container cable_car subway aircraft wheelchair scooter drone" speed="27.78" length="1.74" shape="804.74,516.89 804.02,515.21"/>
    </edge>
    <edge id=":340005520_0" function="internal">
        <lane id=":340005520_0_0" index="0" allow="private emergency authority army vip passenger hov taxi bus coach delivery truck trailer motorcycle evehicle custom1 custom2" speed="22.22" length="8.19" shape="477.68,276.29 479.04,278.29 480.28,279.46 481.51,280.63 482.82,282.66"/>
        <lane id=":340005520_0_1" index="1" allow="private emergency authority army vip passenger hov taxi bus coach delivery truck trailer motorcycle evehicle custom1 custom2" speed="22.22" length="8.19" shape="477.68,276.29 478.59,278.52 478.85,280.19 479.10,281.86 479.97,284.11"/>
        <lane id=":340005520_0_2" index="2" allow="private emergency authority army vip passenger hov taxi bus coach delivery truck trailer motorcycle evehicle custom1 custom2" speed="22.22" length="8.19" shape="474.86,277.81 475.76,280.02 476.02,281.67 476.26,283.34 477.12,285.56"/>
    </edge>
    <edge id=":34136711_0" function="internal">
        <lane id=":34136711_0_0" index="0" allow="private emergency authority army vip passenger hov taxi bus coach delivery truck trailer motorcycle evehicle custom1 custom2" speed="25.00" length="2.68" shape="713.68,523.68 711.01,523.51"/>
    </edge>
    <edge id=":34136711_1" function="internal">
        <lane id=":34136711_1_0" index="0" disallow="tram rail_urban rail rail_electric rail_fast ship container cable_car subway aircraft wheelchair scooter drone" speed="27.78" length="3.03" shape="713.95,520.49 711.17,520.26"/>
        <lane id=":34136711_1_1" index="1" disallow="tram rail_urban rail rail_electric rail_fast ship container cable_car subway aircraft wheelchair scooter drone" speed="27.78" length="3.03" shape="714.22,517.30 711.32,517.06"/>
        <lane id=":34136711_1_2" index="2" disallow="tram rail_urban rail rail_electric rail_fast ship container cable_car subway aircraft wheelchair scooter drone" speed="27.78" length="3.03" shape="714.49,514.11 711.47,513.86"/>
        <lane id=":34136711_1_3" index="3" disallow="tram rail_urban rail rail_electric rail_fast ship container cable_car subway aircraft wheelchair scooter drone" speed="27.78" length="3.03" shape="714.76,510.92 711.62,510.66"/>
        <lane id=":34136711_1_4" index="4" disallow="tram rail_urban rail rail_electric rail_fast ship container cable_car subway aircraft wheelchair scooter drone" speed="27.78" length="3.03" shape="715.02,507.74 711.78,507.46"/>
    </edge>
    <edge id=":6925571170_0" function="internal">
        <lane id=":6925571170_0_0" index="0" allow="private emergency authority army vip passenger hov taxi bus coach delivery truck trailer motorcycle evehicle custom1 custom2" speed="25.00" length="3.11" shape="702.20,480.35 705.33,480.48"/>
        <lane id=":6925571170_0_1" index="1" allow="private emergency authority army vip passenger hov taxi bus coach delivery truck trailer motorcycle evehicle custom1 custom2" speed="25.00" length="3.11" shape="702.08,483.55 705.15,483.68"/>
    </edge>
    <edge id=":6925571170_2" function="internal">
        <lane id=":6925571170_2_0" index="0" disallow="tram rail_urban rail rail_electric rail_fast ship container cable_car subway aircraft wheelchair scooter drone" speed="27.78" length="2.92" shape="701.97,486.67 704.97,486.87"/>
        <lane id=":6925571170_2_1" index="1" disallow="tram rail_urban rail rail_electric rail_fast ship container cable_car subway aircraft wheelchair scooter drone" speed="27.78" length="2.92" shape="701.85,489.87 704.80,490.07"/>
        <lane id=":6925571170_2_2" index="2" disallow="tram rail_urban rail rail_electric rail_fast ship container cable_car subway aircraft wheelchair scooter drone" speed="27.78" length="2.92" shape="701.74,493.07 704.62,493.26"/>
        <lane id=":6925571170_2_3" index="3" disallow="tram rail_urban rail rail_electric rail_fast ship container cable_car subway aircraft wheelchair scooter drone" speed="27.78" length="2.92" shape="701.62,496.27 704.44,496.46"/>
    </edge>
    <edge id=":6932897455_0" function="internal">
        <lane id=":6932897455_0_0" index="0" disallow="tram rail_urban rail rail_electric rail_fast ship container cable_car subway aircraft wheelchair scooter drone" speed="27.78" length="8.21" shape="809.98,493.58 812.33,494.11 813.86,494.84 815.39,495.57 817.74,496.10"/>
        <lane id=":6932897455_0_1" index="1" disallow="tram rail_urban rail rail_electric rail_fast ship container cable_car subway aircraft wheelchair scooter drone" speed="27.78" length="8.21" shape="809.61,496.76 811.96,497.28 813.49,498.02 815.02,498.75 817.37,499.27"/>
        <lane id=":6932897455_0_2" index="2" disallow="tram rail_urban rail rail_electric rail_fast ship container cable_car subway aircraft wheelchair scooter drone" speed="27.78" length="8.21" shape="809.24,499.94 811.59,500.46 813.12,501.19 814.65,501.93 817.00,502.45"/>
        <lane id=":6932897455_0_3" index="3" disallow="tram rail_urban rail rail_electric rail_fast ship container cable_car subway aircraft wheelchair scooter drone" speed="27.78" length="8.21" shape="808.87,503.12 811.22,503.64 812.75,504.37 814.28,505.11 816.63,505.63"/>
        <lane id=":6932897455_0_4" index="4" disallow="tram rail_urban rail rail_electric rail_fast ship container cable_car subway aircraft wheelchair scooter drone" speed="27.78" length="8.21" shape="808.50,506.29 810.85,506.82 812.38,507.55 813.91,508.28 816.26,508.81"/>
    </edge>
    <edge id=":clusterJ2_cluster1264117789_cluster8595001342_cluster_11834588594_3280718187_34136693_34136717_#1more_0" function="internal">
        <lane id=":clusterJ2_cluster1264117789_cluster8595001342_cluster_11834588594_3280718187_34136693_34136717_#1more_0_0" index="0" disallow="tram rail_urban rail rail_electric rail_fast ship container cable_car subway aircraft wheelchair scooter drone" speed="27.78" length="22.20" shape="653.18,524.47 647.54,525.75 643.94,527.52 640.57,529.95 635.62,533.20"/>
        <lane id=":clusterJ2_cluster1264117789_cluster8595001342_cluster_11834588594_3280718187_34136693_34136717_#1more_0_1" index="1" disallow="tram rail_urban rail rail_electric rail_fast ship container cable_car subway aircraft wheelchair scooter drone" speed="27.78" length="22.20" shape="652.66,521.31 646.67,522.65 642.84,524.49 639.25,527.02 634.00,530.44"/>
        <lane id=":clusterJ2_cluster1264117789_cluster8595001342_cluster_11834588594_3280718187_34136693_34136717_#1more_0_2" index="2" disallow="tram rail_urban rail rail_electric rail_fast ship container cable_car subway aircraft wheelchair scooter drone" speed="27.78" length="22.20" shape="652.13,518.16 645.80,519.55 641.74,521.45 637.94,524.08 632.39,527.68"/>
        <lane id=":clusterJ2_cluster1264117789_cluster8595001342_cluster_11834588594_3280718187_34136693_34136717_#1more_0_3" index="3" disallow="tram rail_urban rail rail_electric rail_fast ship container cable_car subway aircraft wheelchair scooter drone" speed="27.78" length="22.20" shape="651.60,515.00 644.94,516.45 640.64,518.41 636.62,521.15 630.77,524.91"/>
        <lane id=":clusterJ2_cluster1264117789_cluster8595001342_cluster_11834588594_3280718187_34136693_34136717_#1more_0_4" index="4" disallow="tram rail_urban rail rail_electric rail_fast ship container cable_car subway aircraft wheelchair scooter drone" speed="27.78" length="22.20" shape="651.07,511.84 644.07,513.35 639.55,515.38 635.31,518.21 629.16,522.15"/>
    </edge>
    <edge id=":clusterJ2_cluster1264117789_cluster8595001342_cluster_11834588594_3280718187_34136693_34136717_#1more_5" function="internal">
        <lane id=":clusterJ2_cluster1264117789_cluster8595001342_cluster_11834588594_3280718187_34136693_34136717_#1more_5_0" index="0" allow="private emergency authority army vip passenger hov taxi bus coach delivery truck trailer motorcycle evehicle custom1 custom2" speed="22.22" length="8.67" shape="643.64,472.92 645.83,474.06 647.37,474.76 648.97,475.31 651.34,475.99"/>
        <lane id=":clusterJ2_cluster1264117789_cluster8595001342_cluster_11834588594_3280718187_34136693_34136717_#1more_5_1" index="1" allow="private emergency authority army vip passenger hov taxi bus coach delivery truck trailer motorcycle evehicle custom1 custom2" speed="22.22" length="8.67" shape="642.14,475.74 644.51,476.98 646.18,477.74 647.91,478.34 650.48,479.07"/>
    </edge>
    <edge id=":clusterJ2_cluster1264117789_cluster8595001342_cluster_11834588594_3280718187_34136693_34136717_#1more_7" function="internal">
        <lane id=":clusterJ2_cluster1264117789_cluster8595001342_cluster_11834588594_3280718187_34136693_34136717_#1more_7_0" index="0" allow="private emergency authority army vip passenger hov taxi bus coach delivery truck trailer motorcycle evehicle custom1 custom2" speed="22.22" length="46.16" shape="625.45,492.33 631.75,503.49 637.92,516.05 642.96,527.08 645.92,533.67"/>
    </edge>
    <edge id=":clusterJ2_cluster1264117789_cluster8595001342_cluster_11834588594_3280718187_34136693_34136717_#1more_8" function="internal">
        <lane id=":clusterJ2_cluster1264117789_cluster8595001342_cluster_11834588594_3280718187_34136693_34136717_#1more_8_0" index="0" allow="private emergency authority army vip passenger hov taxi bus coach delivery truck trailer motorcycle evehicle custom1 custom2" speed="12.83" length="39.23" shape="625.45,492.33 632.75,505.31 636.33,515.52 636.21,522.98 632.39,527.68"/>
        <lane id=":clusterJ2_cluster1264117789_cluster8595001342_cluster_11834588594_3280718187_34136693_34136717_#1more_8_1" index="1" allow="private emergency authority army vip passenger hov taxi bus coach delivery truck trailer motorcycle evehicle custom1 custom2" speed="12.00" length="34.19" shape="622.75,494.05 629.44,505.69 633.01,514.72 633.45,521.12 630.77,524.91"/>
        <lane id=":clusterJ2_cluster1264117789_cluster8595001342_cluster_11834588594_3280718187_34136693_34136717_#1more_8_2" index="2" allow="private emergency authority army vip passenger hov taxi bus coach delivery truck trailer motorcycle evehicle custom1 custom2" speed="11.13" length="29.28" shape="620.05,495.77 626.14,506.08 629.69,513.92 630.70,519.27 629.16,522.15"/>
    </edge>
    <edge id=":clusterJ2_cluster1264117789_cluster8595001342_cluster_11834588594_3280718187_34136693_34136717_#1more_11" function="internal">
        <lane id=":clusterJ2_cluster1264117789_cluster8595001342_cluster_11834588594_3280718187_34136693_34136717_#1more_11_0" index="0" disallow="tram rail_urban rail rail_electric rail_fast ship container cable_car subway aircraft wheelchair scooter drone" speed="27.78" length="31.21" shape="618.22,503.42 626.39,498.34 632.11,494.89 638.21,492.48 647.51,490.50"/>
        <lane id=":clusterJ2_cluster1264117789_cluster8595001342_cluster_11834588594_3280718187_34136693_34136717_#1more_11_1" index="1" disallow="tram rail_urban rail rail_electric rail_fast ship container cable_car subway aircraft wheelchair scooter drone" speed="27.78" length="31.21" shape="619.83,506.19 627.70,501.27 633.21,497.93 639.08,495.58 648.04,493.65"/>
        <lane id=":clusterJ2_cluster1264117789_cluster8595001342_cluster_11834588594_3280718187_34136693_34136717_#1more_11_2" index="2" disallow="tram rail_urban rail rail_electric rail_fast ship container cable_car subway aircraft wheelchair scooter drone" speed="27.78" length="31.21" shape="621.45,508.95 629.02,504.21 634.31,500.96 639.94,498.67 648.56,496.81"/>
    </edge>
    <edge id=":clusterJ2_cluster1264117789_cluster8595001342_cluster_11834588594_3280718187_34136693_34136717_#1more_14" function="internal">
        <lane id=":clusterJ2_cluster1264117789_cluster8595001342_cluster_11834588594_3280718187_34136693_34136717_#1more_14_0" index="0" allow="private emergency authority army vip passenger hov taxi bus coach delivery truck trailer motorcycle evehicle custom1 custom2" speed="11.88" length="34.94" shape="623.06,511.71 629.05,510.85 634.77,514.89 640.35,522.83 645.92,533.67"/>
    </edge>

    <edge id="1279598614#1" from="clusterJ2_cluster1264117789_cluster8595001342_cluster_11834588594_3280718187_34136693_34136717_#1more" to="6925571170" name="שדרות שבעת הכוכבים" priority="12" type="highway.primary" spreadType="center" shape="648.30,495.23 658.60,493.51 670.17,492.28 695.21,491.23 703.74,491.54">
        <lane id="1279598614#1_0" index="0" disallow="tram rail_urban rail rail_electric rail_fast ship container cable_car subway aircraft wheelchair scooter drone" speed="27.78" length="53.73" shape="647.51,490.50 657.95,488.75 669.82,487.49 695.20,486.43 701.97,486.67">
            <param key="origId" value="1279598614"/>
        </lane>
        <lane id="1279598614#1_1" index="1" disallow="tram rail_urban rail rail_electric rail_fast ship container cable_car subway aircraft wheelchair scooter drone" speed="27.78" length="53.73" shape="648.04,493.65 658.38,491.92 670.05,490.68 695.21,489.63 701.85,489.87">
            <param key="origId" value="1279598614"/>
        </lane>
        <lane id="1279598614#1_2" index="2" disallow="tram rail_urban rail rail_electric rail_fast ship container cable_car subway aircraft wheelchair scooter drone" speed="27.78" length="53.73" shape="648.56,496.81 658.82,495.10 670.29,493.88 695.21,492.83 701.74,493.07">
            <param key="origId" value="1279598614"/>
        </lane>
        <lane id="1279598614#1_3" index="3" disallow="tram rail_urban rail rail_electric rail_fast ship container cable_car subway aircraft wheelchair scooter drone" speed="27.78" length="53.73" shape="649.09,499.96 659.25,498.27 670.52,497.07 695.22,496.03 701.62,496.27">
            <param key="origId" value="1279598614"/>
        </lane>
        <param key="ref" value="541"/>
    </edge>
    <edge id="139252069" from="270158058" to="clusterJ2_cluster1264117789_cluster8595001342_cluster_11834588594_3280718187_34136693_34136717_#1more" name="שדרות אבא אבן" priority="12" type="highway.primary" spreadType="center" shape="531.33,560.34 628.25,503.07">
        <lane id="139252069_0" index="0" disallow="tram rail_urban rail rail_electric rail_fast ship container cable_car subway aircraft wheelchair scooter drone" speed="27.78" length="103.74" shape="528.89,556.21 618.22,503.42">
            <param key="origId" value="139252069"/>
        </lane>
        <lane id="139252069_1" index="1" disallow="tram rail_urban rail rail_electric rail_fast ship container cable_car subway aircraft wheelchair scooter drone" speed="27.78" length="103.74" shape="530.52,558.96 619.83,506.19">
            <param key="origId" value="139252069"/>
        </lane>
        <lane id="139252069_2" index="2" disallow="tram rail_urban rail rail_electric rail_fast ship container cable_car subway aircraft wheelchair scooter drone" speed="27.78" length="103.74" shape="532.14,561.72 621.45,508.95">
            <param key="origId" value="139252069"/>
        </lane>
        <lane id="139252069_3" index="3" disallow="tram rail_urban rail rail_electric rail_fast ship container cable_car subway aircraft wheelchair scooter drone" speed="27.78" length="103.74" shape="533.77,564.47 623.06,511.71">
            <param key="origId" value="139252069"/>
        </lane>
        <param key="origFrom" value="270158058"/>
        <param key="origTo" value="34136693"/>
        <param key="ref" value="541"/>
    </edge>
    <edge id="172824408" from="340005520" to="172824408-AddedOffRampNode" priority="9" type="highway.motorway_link" spreadType="center" shape="478.16,280.56 492.10,307.91 514.11,339.71 515.50,341.64">
        <lane id="172824408_0" index="0" allow="private emergency authority army vip passenger hov taxi bus coach delivery truck trailer motorcycle evehicle custom1 custom2" speed="22.22" length="63.76" shape="482.82,282.66 494.85,306.27 515.78,336.50">
            <param key="origId" value="172824408"/>
        </lane>
        <lane id="172824408_1" index="1" allow="private emergency authority army vip passenger hov taxi bus coach delivery truck trailer motorcycle evehicle custom1 custom2" speed="22.22" length="63.76" shape="479.97,284.11 492.10,307.91 513.18,338.37">
            <param key="origId" value="172824408"/>
        </lane>
        <lane id="172824408_2" index="2" allow="private emergency authority army vip passenger hov taxi bus coach delivery truck trailer motorcycle evehicle custom1 custom2" speed="22.22" length="63.76" shape="477.12,285.56 489.35,309.55 510.59,340.24">
            <param key="origId" value="172824408"/>
        </lane>
    </edge>
    <edge id="172824408-AddedOffRampEdge" from="172824408-AddedOffRampNode" to="1264117732" priority="9" type="highway.motorway_link" spreadType="center" shape="518.09,339.76 576.71,420.78">
        <lane id="172824408-AddedOffRampEdge_0" index="0" allow="private emergency authority army vip passenger hov taxi bus coach delivery truck trailer motorcycle evehicle custom1 custom2" speed="22.22" length="94.44" shape="525.62,339.25 580.98,415.76">
            <param key="origId" value="172824408"/>
        </lane>
        <lane id="172824408-AddedOffRampEdge_1" index="1" allow="private emergency authority army vip passenger hov taxi bus coach delivery truck trailer motorcycle evehicle custom1 custom2" speed="22.22" length="94.44" shape="523.03,341.13 578.39,417.64">
            <param key="origId" value="172824408"/>
        </lane>
        <lane id="172824408-AddedOffRampEdge_2" index="2" allow="private emergency authority army vip passenger hov taxi bus coach delivery truck trailer motorcycle evehicle custom1 custom2" speed="22.22" length="94.44" shape="520.44,343.00 575.79,419.51">
            <param key="origId" value="172824408"/>
        </lane>
        <lane id="172824408-AddedOffRampEdge_3" index="3" allow="private emergency authority army vip passenger hov taxi bus coach delivery truck trailer motorcycle evehicle custom1 custom2" speed="22.22" length="94.44" shape="517.84,344.88 573.20,421.39">
            <param key="origId" value="172824408"/>
        </lane>
        <lane id="172824408-AddedOffRampEdge_4" index="4" allow="private emergency authority army vip passenger hov taxi bus coach delivery truck trailer motorcycle evehicle custom1 custom2" speed="22.22" length="94.44" shape="515.25,346.75 570.61,423.26">
            <param key="origId" value="172824408"/>
        </lane>
    </edge>
    <edge id="172824413#0" from="1264117732" to="clusterJ2_cluster1264117789_cluster8595001342_cluster_11834588594_3280718187_34136693_34136717_#1more" priority="9" type="highway.motorway_link" spreadType="center" shape="580.60,417.97 587.92,428.83 599.25,442.97 610.82,454.90 632.37,468.77 646.73,476.36">
        <lane id="172824413#0_0" index="0" allow="private emergency authority army vip passenger hov taxi bus coach delivery truck trailer motorcycle evehicle custom1 custom2" speed="22.22" length="83.44" shape="583.00,418.67 589.21,427.88 600.45,441.91 611.84,453.65 633.18,467.39 643.64,472.92">
            <param key="origId" value="172824413"/>
        </lane>
        <lane id="172824413#0_1" index="1" allow="private emergency authority army vip passenger hov taxi bus coach delivery truck trailer motorcycle evehicle custom1 custom2" speed="22.22" length="83.44" shape="580.35,420.46 586.63,429.78 598.05,444.03 609.80,456.15 631.56,470.15 642.14,475.74">
            <param key="origId" value="172824413"/>
        </lane>
    </edge>
    <edge id="172824413#0.89" from="clusterJ2_cluster1264117789_cluster8595001342_cluster_11834588594_3280718187_34136693_34136717_#1more" to="6925571170" priority="9" type="highway.motorway_link" spreadType="center" shape="646.73,476.36 662.55,480.78 675.68,482.08 695.24,481.69 703.19,481.99">
        <lane id="172824413#0.89_0" index="0" allow="private emergency authority army vip passenger hov taxi bus coach delivery truck trailer motorcycle evehicle custom1 custom2" speed="22.22" length="51.75" shape="651.34,475.99 662.85,479.20 675.74,480.48 695.25,480.09 702.20,480.35">
            <param key="origId" value="172824413"/>
        </lane>
        <lane id="172824413#0.89_1" index="1" allow="private emergency authority army vip passenger hov taxi bus coach delivery truck trailer motorcycle evehicle custom1 custom2" speed="22.22" length="51.75" shape="650.48,479.07 662.25,482.36 675.62,483.68 695.23,483.29 702.08,483.55">
            <param key="origId" value="172824413"/>
        </lane>
    </edge>
    <edge id="180166262#0" from="clusterJ2_cluster1264117789_cluster8595001342_cluster_11834588594_3280718187_34136693_34136717_#1more" to="1264117778" priority="9" type="highway.motorway_link" spreadType="center" shape="639.98,523.24 645.49,532.74 651.90,546.42 671.74,588.70">
        <lane id="180166262#0_0" index="0" allow="private emergency authority army vip passenger hov taxi bus coach delivery truck trailer motorcycle evehicle custom1 custom2" speed="22.22" length="45.84" shape="645.92,533.67 651.90,546.42 665.39,575.17">
            <param key="origId" value="180166262"/>
        </lane>
        <param key="origFrom" value="34136717"/>
    </edge>
    <edge id="198505048#0" from="3273365394" to="34136711" name="שדרות שבעת הכוכבים" priority="12" type="highway.primary" spreadType="center" shape="803.71,523.21 713.07,515.60">
        <lane id="198505048#0_0" index="0" disallow="tram rail_urban rail rail_electric rail_fast ship container cable_car subway aircraft wheelchair scooter drone" speed="27.78" length="89.31" shape="802.68,531.15 713.68,523.68">
            <param key="origId" value="198505048"/>
        </lane>
        <lane id="198505048#0_1" index="1" disallow="tram rail_urban rail rail_electric rail_fast ship container cable_car subway aircraft wheelchair scooter drone" speed="27.78" length="89.31" shape="802.94,527.96 713.95,520.49">
            <param key="origId" value="198505048"/>
        </lane>
        <lane id="198505048#0_2" index="2" disallow="tram rail_urban rail rail_electric rail_fast ship container cable_car subway aircraft wheelchair scooter drone" speed="27.78" length="89.31" shape="803.21,524.77 714.22,517.30">
            <param key="origId" value="198505048"/>
        </lane>