<?xml version="1.0" encoding="UTF-8"?>

<!-- generated on 2024-07-01 09:48:52 by Eclipse SUMO sumo Version 1.20.0
-->

<configuration xmlns:xsi="http://www.w3.org/2001/XMLSchema-instance" xsi:noNamespaceSchemaLocation="http://sumo.dlr.de/xsd/sumoConfiguration.xsd">

    <input>
        <net-file value="full_net.net.xml"/>
        <route-files value="routes_full_net/full_net_random_easy_1.rou.xml"/>
    </input>

</configuration>
