<?xml version="1.0" encoding="UTF-8"?>

<!-- generated on 2024-07-17 23:58:04 by Eclipse SUMO sumo Version 1.20.0
-->

<configuration xmlns:xsi="http://www.w3.org/2001/XMLSchema-instance" xsi:noNamespaceSchemaLocation="http://sumo.dlr.de/xsd/sumoConfiguration.xsd">

    <input>
        <net-file value="intersection_6.net.xml"/>
        <route-files value="routes_6_hour/intersection_6_18_19_.rou.xml"/>
    </input>

</configuration>
